data_image0
_chemical_formula_structural       Ce4O8Ce4O8Ce4O8Ce4O8Ce4O8Ce4O8Ce4O8Ce4O8Ce4O8Ce4O8Ce4O8Ce4O8Ce4O8Ce4O8Ce4O8Ce4O8Ce4O8Ce4O8Ce4O8Ce4O8Ce4O8Ce4O8Ce4O8Ce4O8Ce4O8Ce4O8Ce4O8Ce4O8Ce4O8Ce4O8Ce4O8Ce4O8Ce4O8Ce4O8Ce4O8Ce4O8Ce4O8Ce4O8Ce4O8Ce4O8Ce4O8Ce4O8Ce4O8Ce4O8Ce4O8Ce4O8Ce4O8Ce4O8Ce4O8Ce4O8Ce4O8Ce4O8Ce4O8Ce4O8Ce4O8Ce4O8
_chemical_formula_sum              "Ce224 O448"
_cell_length_a       15.46428487314305
_cell_length_b       15.464284873143049
_cell_length_c       43.40371655610943
_cell_angle_alpha    90.0
_cell_angle_beta     90.0
_cell_angle_gamma    59.99999999999999

_space_group_name_H-M_alt    "P 1"
_space_group_IT_number       1

loop_
  _space_group_symop_operation_xyz
  'x, y, z'

loop_
  _atom_site_type_symbol
  _atom_site_label
  _atom_site_symmetry_multiplicity
  _atom_site_fract_x
  _atom_site_fract_y
  _atom_site_fract_z
  _atom_site_occupancy
  Ce  Ce1       1.0  0.0  0.0  3.2799032947515134e-18  1.0000
  Ce  Ce2       1.0  0.24999999999999997  0.24999999999999992  3.9188420690983295e-19  1.0000
  Ce  Ce3       1.0  0.24999999999999994  0.0  -3.2799032947515134e-18  1.0000
  Ce  Ce4       1.0  2.727482006068769e-17  0.24999999999999992  1.8358937508306736e-18  1.0000
  O   O1        1.0  0.49999999999999983  0.0  0.054545454545454536  1.0000
  O   O2        1.0  0.3333333333333332  0.33333333333333337  0.01818181818181818  1.0000
  O   O3        1.0  0.3333333333333332  0.08333333333333333  0.01818181818181817  1.0000
  O   O4        1.0  0.49999999999999994  0.24999999999999992  0.054545454545454536  1.0000
  O   O5        1.0  0.24999999999999997  0.24999999999999992  0.054545454545454536  1.0000
  O   O6        1.0  0.0833333333333333  0.08333333333333334  0.018181818181818184  1.0000
  O   O7        1.0  0.08333333333333329  0.33333333333333337  0.01818181818181818  1.0000
  O   O8        1.0  0.2499999999999999  0.0  0.054545454545454536  1.0000
  Ce  Ce5       1.0  0.33333333333333326  0.3333333333333333  0.07272727272727272  1.0000
  Ce  Ce6       1.0  0.08333333333333301  0.08333333333333333  0.07272727272727271  1.0000
  Ce  Ce7       1.0  0.08333333333333315  0.3333333333333333  0.07272727272727271  1.0000
  Ce  Ce8       1.0  0.33333333333333326  0.08333333333333333  0.07272727272727272  1.0000
  O   O9        1.0  0.33333333333333304  0.3333333333333333  0.12727272727272723  1.0000
  O   O10       1.0  0.16666666666666652  0.16666666666666666  0.09090909090909088  1.0000
  O   O11       1.0  0.16666666666666655  0.41666666666666663  0.09090909090909088  1.0000
  O   O12       1.0  0.3333333333333329  0.08333333333333334  0.12727272727272723  1.0000
  O   O13       1.0  0.08333333333333315  0.08333333333333333  0.12727272727272723  1.0000
  O   O14       1.0  0.41666666666666646  0.41666666666666663  0.09090909090909088  1.0000
  O   O15       1.0  0.4166666666666664  0.16666666666666666  0.09090909090909088  1.0000
  O   O16       1.0  0.08333333333333315  0.3333333333333333  0.12727272727272723  1.0000
  Ce  Ce9       1.0  0.16666666666666655  0.16666666666666657  0.14545454545454545  1.0000
  Ce  Ce10      1.0  0.41666666666666635  0.41666666666666663  0.14545454545454545  1.0000
  Ce  Ce11      1.0  0.41666666666666635  0.16666666666666657  0.14545454545454545  1.0000
  Ce  Ce12      1.0  0.16666666666666655  0.41666666666666663  0.14545454545454545  1.0000
  O   O17       1.0  0.1666666666666663  0.16666666666666657  0.19999999999999998  1.0000
  O   O18       1.0  0.49999999999999956  2.153157751920431e-18  0.1636363636363636  1.0000
  O   O19       1.0  0.49999999999999983  0.24999999999999992  0.16363636363636358  1.0000
  O   O20       1.0  0.1666666666666663  0.4166666666666666  0.2  1.0000
  O   O21       1.0  0.41666666666666635  0.41666666666666663  0.19999999999999998  1.0000
  O   O22       1.0  0.24999999999999972  0.24999999999999992  0.1636363636363636  1.0000
  O   O23       1.0  0.2499999999999997  1.4555414165617894e-17  0.16363636363636358  1.0000
  O   O24       1.0  0.41666666666666635  0.16666666666666657  0.19999999999999998  1.0000
  Ce  Ce13      1.0  0.49999999999999956  0.0  0.21818181818181814  1.0000
  Ce  Ce14      1.0  0.24999999999999956  0.2499999999999999  0.21818181818181814  1.0000
  Ce  Ce15      1.0  0.24999999999999956  0.0  0.21818181818181814  1.0000
  Ce  Ce16      1.0  0.4999999999999997  0.24999999999999992  0.21818181818181814  1.0000
  O   O25       1.0  0.4999999999999998  0.4999999999999997  0.2727272727272727  1.0000
  O   O26       1.0  0.33333333333333304  0.3333333333333333  0.23636363636363628  1.0000
  O   O27       1.0  0.3333333333333328  0.08333333333333329  0.23636363636363628  1.0000
  O   O28       1.0  0.4999999999999998  0.2499999999999999  0.27272727272727276  1.0000
  O   O29       1.0  0.24999999999999933  0.24999999999999992  0.2727272727272726  1.0000
  O   O30       1.0  0.08333333333333326  0.08333333333333326  0.23636363636363636  1.0000
  O   O31       1.0  0.08333333333333331  0.33333333333333315  0.23636363636363636  1.0000
  O   O32       1.0  0.24999999999999956  0.0  0.2727272727272726  1.0000
  Ce  Ce17      1.0  0.3333333333333331  0.33333333333333315  0.2909090909090909  1.0000
  Ce  Ce18      1.0  0.08333333333333282  0.08333333333333337  0.2909090909090909  1.0000
  Ce  Ce19      1.0  0.08333333333333286  0.33333333333333315  0.29090909090909084  1.0000
  Ce  Ce20      1.0  0.33333333333333304  0.08333333333333329  0.2909090909090909  1.0000
  O   O33       1.0  0.33333333333333304  0.33333333333333315  0.3454545454545454  1.0000
  O   O34       1.0  0.16666666666666605  0.16666666666666657  0.309090909090909  1.0000
  O   O35       1.0  0.16666666666666632  0.4166666666666665  0.309090909090909  1.0000
  O   O36       1.0  0.3333333333333328  0.08333333333333312  0.3454545454545454  1.0000
  O   O37       1.0  0.08333333333333302  0.08333333333333329  0.3454545454545454  1.0000
  O   O38       1.0  0.4166666666666665  0.4166666666666665  0.3090909090909091  1.0000
  O   O39       1.0  0.4166666666666663  0.16666666666666657  0.3090909090909091  1.0000
  O   O40       1.0  0.08333333333333309  0.33333333333333315  0.3454545454545454  1.0000
  Ce  Ce21      1.0  0.16666666666666605  0.16666666666666657  0.36363636363636354  1.0000
  Ce  Ce22      1.0  0.4166666666666659  0.41666666666666663  0.36363636363636354  1.0000
  Ce  Ce23      1.0  0.41666666666666613  0.16666666666666657  0.36363636363636354  1.0000
  Ce  Ce24      1.0  0.16666666666666585  0.41666666666666663  0.36363636363636354  1.0000
  O   O41       1.0  0.16666666666666652  0.16666666666666652  0.4181818181818182  1.0000
  O   O42       1.0  0.49999999999999944  0.4999999999999998  0.3818181818181816  1.0000
  O   O43       1.0  0.4999999999999995  0.2499999999999999  0.3818181818181818  1.0000
  O   O44       1.0  0.16666666666666607  0.4166666666666665  0.41818181818181804  1.0000
  O   O45       1.0  0.4166666666666663  0.4166666666666665  0.41818181818181804  1.0000
  O   O46       1.0  0.24999999999999956  0.2499999999999999  0.3818181818181818  1.0000
  O   O47       1.0  0.24999999999999958  0.4999999999999997  0.3818181818181818  1.0000
  O   O48       1.0  0.41666666666666635  0.16666666666666657  0.41818181818181804  1.0000
  Ce  Ce25      1.0  0.4999999999999992  0.0  0.4363636363636363  1.0000
  Ce  Ce26      1.0  0.24999999999999956  0.2499999999999999  0.4363636363636363  1.0000
  Ce  Ce27      1.0  0.24999999999999958  0.4999999999999997  0.4363636363636363  1.0000
  Ce  Ce28      1.0  0.4999999999999993  0.2499999999999999  0.4363636363636363  1.0000
  O   O49       1.0  0.49999999999999906  0.4999999999999997  0.4909090909090909  1.0000
  O   O50       1.0  0.33333333333333265  0.33333333333333315  0.45454545454545436  1.0000
  O   O51       1.0  0.3333333333333326  0.08333333333333312  0.4545454545454545  1.0000
  O   O52       1.0  0.49999999999999917  0.2499999999999999  0.4909090909090908  1.0000
  O   O53       1.0  0.24999999999999956  0.2499999999999999  0.4909090909090908  1.0000
  O   O54       1.0  0.08333333333333302  0.08333333333333312  0.45454545454545453  1.0000
  O   O55       1.0  0.083333333333333  0.33333333333333315  0.45454545454545453  1.0000
  O   O56       1.0  0.24999999999999956  0.0  0.4909090909090908  1.0000
  Ce  Ce29      1.0  0.33333333333333265  0.33333333333333315  0.5090909090909089  1.0000
  Ce  Ce30      1.0  0.08333333333333257  0.08333333333333337  0.5090909090909089  1.0000
  Ce  Ce31      1.0  0.08333333333333216  0.33333333333333315  0.5090909090909089  1.0000
  Ce  Ce32      1.0  0.3333333333333326  0.08333333333333312  0.5090909090909089  1.0000
  O   O57       1.0  0.33333333333333304  0.33333333333333304  0.5636363636363635  1.0000
  O   O58       1.0  0.16666666666666602  0.16666666666666674  0.5272727272727271  1.0000
  O   O59       1.0  0.16666666666666569  0.41666666666666663  0.5272727272727271  1.0000
  O   O60       1.0  0.3333333333333331  0.08333333333333302  0.5636363636363635  1.0000
  O   O61       1.0  0.08333333333333257  0.08333333333333337  0.5636363636363635  1.0000
  O   O62       1.0  0.4166666666666661  0.4166666666666665  0.5272727272727271  1.0000
  O   O63       1.0  0.4166666666666661  0.16666666666666652  0.5272727272727271  1.0000
  O   O64       1.0  0.08333333333333258  0.3333333333333335  0.5636363636363635  1.0000
  Ce  Ce33      1.0  0.16666666666666602  0.16666666666666652  0.5818181818181818  1.0000
  Ce  Ce34      1.0  0.4166666666666661  0.4166666666666663  0.5818181818181818  1.0000
  Ce  Ce35      1.0  0.4166666666666661  0.16666666666666652  0.5818181818181818  1.0000
  Ce  Ce36      1.0  0.16666666666666607  0.4166666666666665  0.5818181818181818  1.0000
  O   O65       1.0  0.16666666666666602  0.16666666666666652  0.6363636363636364  1.0000
  O   O66       1.0  0.49999999999999944  0.0  0.5999999999999999  1.0000
  O   O67       1.0  0.499999999999999  0.24999999999999992  0.5999999999999999  1.0000
  O   O68       1.0  0.16666666666666655  0.4166666666666665  0.6363636363636361  1.0000
  O   O69       1.0  0.4166666666666661  0.4166666666666665  0.6363636363636361  1.0000
  O   O70       1.0  0.24999999999999953  0.24999999999999972  0.5999999999999999  1.0000
  O   O71       1.0  0.2499999999999996  0.49999999999999944  0.5999999999999999  1.0000
  O   O72       1.0  0.41666666666666563  0.16666666666666652  0.6363636363636361  1.0000
  Ce  Ce37      1.0  0.49999999999999906  0.0  0.6545454545454544  1.0000
  Ce  Ce38      1.0  0.24999999999999908  0.24999999999999972  0.6545454545454543  1.0000
  Ce  Ce39      1.0  0.2499999999999991  0.0  0.6545454545454544  1.0000
  Ce  Ce40      1.0  0.499999999999999  0.24999999999999992  0.6545454545454544  1.0000
  O   O73       1.0  0.49999999999999906  0.0  0.709090909090909  1.0000
  O   O74       1.0  0.33333333333333204  0.3333333333333335  0.6727272727272724  1.0000
  O   O75       1.0  0.33333333333333204  0.08333333333333345  0.6727272727272724  1.0000
  O   O76       1.0  0.499999999999999  0.24999999999999992  0.7090909090909089  1.0000
  O   O77       1.0  0.2499999999999987  0.24999999999999992  0.709090909090909  1.0000
  O   O78       1.0  0.08333333333333257  0.08333333333333326  0.6727272727272727  1.0000
  O   O79       1.0  0.08333333333333302  0.33333333333333304  0.6727272727272727  1.0000
  O   O80       1.0  0.24999999999999867  0.0  0.7090909090909089  1.0000
  Ce  Ce41      1.0  0.3333333333333321  0.33333333333333315  0.7272727272727271  1.0000
  Ce  Ce42      1.0  0.08333333333333257  0.08333333333333282  0.7272727272727271  1.0000
  Ce  Ce43      1.0  0.0833333333333326  0.33333333333333315  0.7272727272727271  1.0000
  Ce  Ce44      1.0  0.33333333333333204  0.08333333333333326  0.7272727272727271  1.0000
  O   O81       1.0  0.33333333333333265  0.33333333333333315  0.7818181818181817  1.0000
  O   O82       1.0  0.16666666666666563  0.16666666666666652  0.7454545454545454  1.0000
  O   O83       1.0  0.16666666666666563  0.4166666666666665  0.7454545454545454  1.0000
  O   O84       1.0  0.3333333333333326  0.08333333333333326  0.7818181818181817  1.0000
  O   O85       1.0  0.08333333333333215  0.08333333333333326  0.7818181818181817  1.0000
  O   O86       1.0  0.41666666666666563  0.4166666666666665  0.7454545454545454  1.0000
  O   O87       1.0  0.41666666666666563  0.16666666666666652  0.7454545454545454  1.0000
  O   O88       1.0  0.08333333333333216  0.33333333333333315  0.7818181818181817  1.0000
  Ce  Ce45      1.0  0.16666666666666513  0.16666666666666674  0.7999999999999999  1.0000
  Ce  Ce46      1.0  0.41666666666666563  0.4166666666666663  0.7999999999999999  1.0000
  Ce  Ce47      1.0  0.41666666666666563  0.16666666666666674  0.7999999999999999  1.0000
  Ce  Ce48      1.0  0.16666666666666563  0.4166666666666665  0.7999999999999999  1.0000
  O   O89       1.0  0.16666666666666513  0.16666666666666674  0.8545454545454544  1.0000
  O   O90       1.0  0.4999999999999994  0.4999999999999997  0.8181818181818182  1.0000
  O   O91       1.0  0.49999999999999944  0.24999999999999972  0.8181818181818182  1.0000
  O   O92       1.0  0.16666666666666516  0.4166666666666665  0.8545454545454544  1.0000
  O   O93       1.0  0.4166666666666661  0.4166666666666663  0.8545454545454546  1.0000
  O   O94       1.0  0.24999999999999908  0.24999999999999972  0.8181818181818179  1.0000
  O   O95       1.0  0.24999999999999914  0.4999999999999997  0.8181818181818179  1.0000
  O   O96       1.0  0.41666666666666613  0.16666666666666624  0.8545454545454546  1.0000
  Ce  Ce49      1.0  0.4999999999999986  0.0  0.8727272727272726  1.0000
  Ce  Ce50      1.0  0.2499999999999991  0.24999999999999956  0.8727272727272726  1.0000
  Ce  Ce51      1.0  0.2499999999999991  0.0  0.8727272727272726  1.0000
  Ce  Ce52      1.0  0.499999999999999  0.24999999999999972  0.8727272727272726  1.0000
  O   O97       1.0  0.49999999999999906  0.0  0.9272727272727272  1.0000
  O   O98       1.0  0.3333333333333321  0.33333333333333315  0.8909090909090908  1.0000
  O   O99       1.0  0.33333333333333204  0.08333333333333326  0.8909090909090908  1.0000
  O   O100      1.0  0.499999999999999  0.24999999999999972  0.9272727272727272  1.0000
  O   O101      1.0  0.24999999999999822  0.24999999999999972  0.9272727272727271  1.0000
  O   O102      1.0  0.08333333333333126  0.08333333333333326  0.8909090909090908  1.0000
  O   O103      1.0  0.08333333333333216  0.33333333333333315  0.8909090909090908  1.0000
  O   O104      1.0  0.24999999999999822  0.0  0.9272727272727271  1.0000
  Ce  Ce53      1.0  0.33333333333333304  0.33333333333333304  0.9454545454545454  1.0000
  Ce  Ce54      1.0  0.08333333333333215  0.08333333333333282  0.9454545454545454  1.0000
  Ce  Ce55      1.0  0.08333333333333302  0.33333333333333304  0.9454545454545454  1.0000
  Ce  Ce56      1.0  0.3333333333333331  0.08333333333333302  0.9454545454545454  1.0000
  O   O105      1.0  0.33333333333333204  0.33333333333333304  0.9999999999999998  1.0000
  O   O106      1.0  0.16666666666666516  0.16666666666666624  0.9636363636363636  1.0000
  O   O107      1.0  0.16666666666666516  0.4166666666666665  0.9636363636363636  1.0000
  O   O108      1.0  0.3333333333333321  0.08333333333333302  0.9999999999999998  1.0000
  O   O109      1.0  0.08333333333333215  0.08333333333333302  0.9999999999999998  1.0000
  O   O110      1.0  0.4166666666666652  0.4166666666666665  0.9636363636363636  1.0000
  O   O111      1.0  0.41666666666666524  0.16666666666666624  0.9636363636363636  1.0000
  O   O112      1.0  0.08333333333333216  0.33333333333333304  0.9999999999999998  1.0000
  Ce  Ce57      1.0  5.551115123125783e-17  0.4999999999999999  3.2799032947515134e-18  1.0000
  Ce  Ce58      1.0  0.24999999999999994  0.7499999999999999  3.9188420690983295e-19  1.0000
  Ce  Ce59      1.0  0.25  0.4999999999999999  -3.2799032947515134e-18  1.0000
  Ce  Ce60      1.0  1.4358543362755686e-17  0.75  1.8358937508306736e-18  1.0000
  O   O113      1.0  0.4999999999999999  0.4999999999999999  0.054545454545454536  1.0000
  O   O114      1.0  0.3333333333333333  0.8333333333333333  0.01818181818181818  1.0000
  O   O115      1.0  0.33333333333333326  0.5833333333333333  0.01818181818181817  1.0000
  O   O116      1.0  0.49999999999999994  0.7499999999999999  0.054545454545454536  1.0000
  O   O117      1.0  0.24999999999999994  0.7499999999999999  0.054545454545454536  1.0000
  O   O118      1.0  0.08333333333333333  0.5833333333333333  0.018181818181818184  1.0000
  O   O119      1.0  0.08333333333333331  0.8333333333333333  0.01818181818181818  1.0000
  O   O120      1.0  0.24999999999999997  0.4999999999999999  0.054545454545454536  1.0000
  Ce  Ce61      1.0  0.3333333333333333  0.8333333333333333  0.07272727272727272  1.0000
  Ce  Ce62      1.0  0.08333333333333304  0.5833333333333333  0.07272727272727271  1.0000
  Ce  Ce63      1.0  0.0833333333333332  0.8333333333333333  0.07272727272727271  1.0000
  Ce  Ce64      1.0  0.33333333333333326  0.5833333333333333  0.07272727272727272  1.0000
  O   O121      1.0  0.3333333333333331  0.8333333333333333  0.12727272727272723  1.0000
  O   O122      1.0  0.16666666666666652  0.6666666666666666  0.09090909090909088  1.0000
  O   O123      1.0  0.16666666666666663  0.9166666666666665  0.09090909090909088  1.0000
  O   O124      1.0  0.3333333333333329  0.5833333333333333  0.12727272727272723  1.0000
  O   O125      1.0  0.08333333333333316  0.5833333333333333  0.12727272727272723  1.0000
  O   O126      1.0  0.41666666666666635  0.9166666666666665  0.09090909090909088  1.0000
  O   O127      1.0  0.4166666666666665  0.6666666666666666  0.09090909090909088  1.0000
  O   O128      1.0  0.0833333333333332  0.8333333333333333  0.12727272727272723  1.0000
  Ce  Ce65      1.0  0.16666666666666652  0.6666666666666666  0.14545454545454545  1.0000
  Ce  Ce66      1.0  0.41666666666666635  0.9166666666666665  0.14545454545454545  1.0000
  Ce  Ce67      1.0  0.4166666666666663  0.6666666666666666  0.14545454545454545  1.0000
  Ce  Ce68      1.0  0.16666666666666663  0.9166666666666665  0.14545454545454545  1.0000
  O   O129      1.0  0.1666666666666663  0.6666666666666666  0.19999999999999998  1.0000
  O   O130      1.0  0.49999999999999967  0.4999999999999999  0.1636363636363636  1.0000
  O   O131      1.0  0.49999999999999967  0.75  0.16363636363636358  1.0000
  O   O132      1.0  0.16666666666666635  0.9166666666666664  0.2  1.0000
  O   O133      1.0  0.41666666666666635  0.9166666666666665  0.19999999999999998  1.0000
  O   O134      1.0  0.24999999999999964  0.75  0.1636363636363636  1.0000
  O   O135      1.0  0.24999999999999972  0.4999999999999999  0.16363636363636358  1.0000
  O   O136      1.0  0.4166666666666663  0.6666666666666666  0.19999999999999998  1.0000
  Ce  Ce69      1.0  0.49999999999999967  0.4999999999999999  0.21818181818181814  1.0000
  Ce  Ce70      1.0  0.24999999999999958  0.7499999999999999  0.21818181818181814  1.0000
  Ce  Ce71      1.0  0.2499999999999996  0.4999999999999999  0.21818181818181814  1.0000
  Ce  Ce72      1.0  0.4999999999999995  0.75  0.21818181818181814  1.0000
  O   O137      1.0  0.4999999999999997  0.9999999999999999  0.2727272727272727  1.0000
  O   O138      1.0  0.3333333333333331  0.8333333333333333  0.23636363636363628  1.0000
  O   O139      1.0  0.3333333333333328  0.5833333333333333  0.23636363636363628  1.0000
  O   O140      1.0  0.4999999999999997  0.7499999999999999  0.27272727272727276  1.0000
  O   O141      1.0  0.2499999999999993  0.75  0.2727272727272726  1.0000
  O   O142      1.0  0.08333333333333327  0.5833333333333333  0.23636363636363636  1.0000
  O   O143      1.0  0.08333333333333326  0.8333333333333333  0.23636363636363636  1.0000
  O   O144      1.0  0.2499999999999996  0.4999999999999999  0.2727272727272726  1.0000
  Ce  Ce73      1.0  0.3333333333333331  0.8333333333333333  0.2909090909090909  1.0000
  Ce  Ce74      1.0  0.08333333333333287  0.5833333333333333  0.2909090909090909  1.0000
  Ce  Ce75      1.0  0.0833333333333328  0.8333333333333333  0.29090909090909084  1.0000
  Ce  Ce76      1.0  0.33333333333333304  0.5833333333333333  0.2909090909090909  1.0000
  O   O145      1.0  0.33333333333333304  0.8333333333333331  0.3454545454545454  1.0000
  O   O146      1.0  0.166666666666666  0.6666666666666666  0.309090909090909  1.0000
  O   O147      1.0  0.16666666666666635  0.9166666666666664  0.309090909090909  1.0000
  O   O148      1.0  0.33333333333333276  0.5833333333333331  0.3454545454545454  1.0000
  O   O149      1.0  0.08333333333333304  0.5833333333333333  0.3454545454545454  1.0000
  O   O150      1.0  0.4166666666666664  0.9166666666666664  0.3090909090909091  1.0000
  O   O151      1.0  0.4166666666666663  0.6666666666666666  0.3090909090909091  1.0000
  O   O152      1.0  0.08333333333333302  0.8333333333333333  0.3454545454545454  1.0000
  Ce  Ce77      1.0  0.166666666666666  0.6666666666666666  0.36363636363636354  1.0000
  Ce  Ce78      1.0  0.4166666666666659  0.9166666666666665  0.36363636363636354  1.0000
  Ce  Ce79      1.0  0.4166666666666661  0.6666666666666666  0.36363636363636354  1.0000
  Ce  Ce80      1.0  0.16666666666666594  0.9166666666666665  0.36363636363636354  1.0000
  O   O153      1.0  0.16666666666666663  0.6666666666666663  0.4181818181818182  1.0000
  O   O154      1.0  0.49999999999999944  0.9999999999999999  0.3818181818181816  1.0000
  O   O155      1.0  0.49999999999999933  0.7499999999999999  0.3818181818181818  1.0000
  O   O156      1.0  0.16666666666666613  0.9166666666666664  0.41818181818181804  1.0000
  O   O157      1.0  0.4166666666666663  0.9166666666666664  0.41818181818181804  1.0000
  O   O158      1.0  0.24999999999999958  0.7499999999999999  0.3818181818181818  1.0000
  O   O159      1.0  0.24999999999999956  0.9999999999999999  0.3818181818181818  1.0000
  O   O160      1.0  0.4166666666666663  0.6666666666666666  0.41818181818181804  1.0000
  Ce  Ce81      1.0  0.4999999999999993  0.4999999999999999  0.4363636363636363  1.0000
  Ce  Ce82      1.0  0.24999999999999958  0.7499999999999999  0.4363636363636363  1.0000
  Ce  Ce83      1.0  0.24999999999999956  0.9999999999999999  0.4363636363636363  1.0000
  Ce  Ce84      1.0  0.4999999999999991  0.7499999999999999  0.4363636363636363  1.0000
  O   O161      1.0  0.49999999999999906  0.9999999999999999  0.4909090909090909  1.0000
  O   O162      1.0  0.33333333333333265  0.8333333333333333  0.45454545454545436  1.0000
  O   O163      1.0  0.33333333333333254  0.5833333333333331  0.4545454545454545  1.0000
  O   O164      1.0  0.499999999999999  0.7499999999999999  0.4909090909090908  1.0000
  O   O165      1.0  0.24999999999999958  0.7499999999999999  0.4909090909090908  1.0000
  O   O166      1.0  0.08333333333333304  0.5833333333333331  0.45454545454545453  1.0000
  O   O167      1.0  0.08333333333333302  0.8333333333333331  0.45454545454545453  1.0000
  O   O168      1.0  0.2499999999999996  0.4999999999999999  0.4909090909090908  1.0000
  Ce  Ce85      1.0  0.33333333333333265  0.8333333333333333  0.5090909090909089  1.0000
  Ce  Ce86      1.0  0.08333333333333263  0.5833333333333333  0.5090909090909089  1.0000
  Ce  Ce87      1.0  0.08333333333333216  0.8333333333333333  0.5090909090909089  1.0000
  Ce  Ce88      1.0  0.33333333333333254  0.5833333333333331  0.5090909090909089  1.0000
  O   O169      1.0  0.3333333333333331  0.833333333333333  0.5636363636363635  1.0000
  O   O170      1.0  0.166666666666666  0.6666666666666667  0.5272727272727271  1.0000
  O   O171      1.0  0.1666666666666657  0.9166666666666665  0.5272727272727271  1.0000
  O   O172      1.0  0.3333333333333331  0.5833333333333329  0.5636363636363635  1.0000
  O   O173      1.0  0.08333333333333263  0.5833333333333333  0.5636363636363635  1.0000
  O   O174      1.0  0.4166666666666661  0.9166666666666664  0.5272727272727271  1.0000
  O   O175      1.0  0.41666666666666624  0.6666666666666663  0.5272727272727271  1.0000
  O   O176      1.0  0.08333333333333262  0.8333333333333334  0.5636363636363635  1.0000
  Ce  Ce89      1.0  0.16666666666666619  0.6666666666666663  0.5818181818181818  1.0000
  Ce  Ce90      1.0  0.416666666666666  0.9166666666666663  0.5818181818181818  1.0000
  Ce  Ce91      1.0  0.41666666666666624  0.6666666666666663  0.5818181818181818  1.0000
  Ce  Ce92      1.0  0.16666666666666613  0.9166666666666664  0.5818181818181818  1.0000
  O   O177      1.0  0.16666666666666619  0.6666666666666663  0.6363636363636364  1.0000
  O   O178      1.0  0.4999999999999995  0.4999999999999999  0.5999999999999999  1.0000
  O   O179      1.0  0.49999999999999906  0.75  0.5999999999999999  1.0000
  O   O180      1.0  0.16666666666666657  0.9166666666666664  0.6363636363636361  1.0000
  O   O181      1.0  0.4166666666666661  0.9166666666666664  0.6363636363636361  1.0000
  O   O182      1.0  0.24999999999999953  0.7499999999999998  0.5999999999999999  1.0000
  O   O183      1.0  0.24999999999999956  0.9999999999999997  0.5999999999999999  1.0000
  O   O184      1.0  0.4166666666666658  0.6666666666666663  0.6363636363636361  1.0000
  Ce  Ce93      1.0  0.49999999999999917  0.4999999999999999  0.6545454545454544  1.0000
  Ce  Ce94      1.0  0.24999999999999908  0.7499999999999998  0.6545454545454543  1.0000
  Ce  Ce95      1.0  0.24999999999999917  0.4999999999999999  0.6545454545454544  1.0000
  Ce  Ce96      1.0  0.49999999999999906  0.75  0.6545454545454544  1.0000
  O   O185      1.0  0.49999999999999917  0.4999999999999999  0.709090909090909  1.0000
  O   O186      1.0  0.33333333333333226  0.8333333333333334  0.6727272727272724  1.0000
  O   O187      1.0  0.333333333333332  0.5833333333333335  0.6727272727272724  1.0000
  O   O188      1.0  0.49999999999999906  0.75  0.7090909090909089  1.0000
  O   O189      1.0  0.2499999999999986  0.75  0.709090909090909  1.0000
  O   O190      1.0  0.08333333333333258  0.5833333333333333  0.6727272727272727  1.0000
  O   O191      1.0  0.08333333333333302  0.833333333333333  0.6727272727272727  1.0000
  O   O192      1.0  0.24999999999999875  0.4999999999999999  0.7090909090909089  1.0000
  Ce  Ce97      1.0  0.33333333333333215  0.8333333333333333  0.7272727272727271  1.0000
  Ce  Ce98      1.0  0.08333333333333258  0.5833333333333328  0.7272727272727271  1.0000
  Ce  Ce99      1.0  0.08333333333333257  0.8333333333333333  0.7272727272727271  1.0000
  Ce  Ce100     1.0  0.333333333333332  0.5833333333333333  0.7272727272727271  1.0000
  O   O193      1.0  0.33333333333333265  0.8333333333333333  0.7818181818181817  1.0000
  O   O194      1.0  0.16666666666666577  0.6666666666666663  0.7454545454545454  1.0000
  O   O195      1.0  0.16666666666666566  0.9166666666666664  0.7454545454545454  1.0000
  O   O196      1.0  0.3333333333333326  0.5833333333333333  0.7818181818181817  1.0000
  O   O197      1.0  0.08333333333333212  0.5833333333333333  0.7818181818181817  1.0000
  O   O198      1.0  0.41666666666666563  0.9166666666666664  0.7454545454545454  1.0000
  O   O199      1.0  0.4166666666666658  0.6666666666666663  0.7454545454545454  1.0000
  O   O200      1.0  0.08333333333333216  0.8333333333333333  0.7818181818181817  1.0000
  Ce  Ce101     1.0  0.16666666666666513  0.6666666666666667  0.7999999999999999  1.0000
  Ce  Ce102     1.0  0.4166666666666656  0.9166666666666663  0.7999999999999999  1.0000
  Ce  Ce103     1.0  0.4166666666666657  0.6666666666666667  0.7999999999999999  1.0000
  Ce  Ce104     1.0  0.16666666666666566  0.9166666666666664  0.7999999999999999  1.0000
  O   O201      1.0  0.16666666666666513  0.6666666666666667  0.8545454545454544  1.0000
  O   O202      1.0  0.49999999999999933  0.9999999999999999  0.8181818181818182  1.0000
  O   O203      1.0  0.4999999999999994  0.7499999999999998  0.8181818181818182  1.0000
  O   O204      1.0  0.1666666666666652  0.9166666666666664  0.8545454545454544  1.0000
  O   O205      1.0  0.416666666666666  0.9166666666666663  0.8545454545454546  1.0000
  O   O206      1.0  0.24999999999999908  0.7499999999999998  0.8181818181818179  1.0000
  O   O207      1.0  0.2499999999999991  0.9999999999999999  0.8181818181818179  1.0000
  O   O208      1.0  0.4166666666666662  0.6666666666666662  0.8545454545454546  1.0000
  Ce  Ce105     1.0  0.4999999999999987  0.4999999999999999  0.8727272727272726  1.0000
  Ce  Ce106     1.0  0.24999999999999914  0.7499999999999994  0.8727272727272726  1.0000
  Ce  Ce107     1.0  0.24999999999999917  0.4999999999999999  0.8727272727272726  1.0000
  Ce  Ce108     1.0  0.49999999999999906  0.7499999999999998  0.8727272727272726  1.0000
  O   O209      1.0  0.49999999999999917  0.4999999999999999  0.9272727272727272  1.0000
  O   O210      1.0  0.33333333333333215  0.8333333333333333  0.8909090909090908  1.0000
  O   O211      1.0  0.333333333333332  0.5833333333333333  0.8909090909090908  1.0000
  O   O212      1.0  0.49999999999999906  0.7499999999999998  0.9272727272727272  1.0000
  O   O213      1.0  0.24999999999999817  0.7499999999999998  0.9272727272727271  1.0000
  O   O214      1.0  0.08333333333333126  0.5833333333333333  0.8909090909090908  1.0000
  O   O215      1.0  0.08333333333333216  0.8333333333333333  0.8909090909090908  1.0000
  O   O216      1.0  0.2499999999999983  0.4999999999999999  0.9272727272727271  1.0000
  Ce  Ce109     1.0  0.3333333333333331  0.833333333333333  0.9454545454545454  1.0000
  Ce  Ce110     1.0  0.08333333333333212  0.5833333333333328  0.9454545454545454  1.0000
  Ce  Ce111     1.0  0.08333333333333302  0.833333333333333  0.9454545454545454  1.0000
  Ce  Ce112     1.0  0.3333333333333331  0.5833333333333329  0.9454545454545454  1.0000
  O   O217      1.0  0.33333333333333215  0.833333333333333  0.9999999999999998  1.0000
  O   O218      1.0  0.1666666666666652  0.6666666666666662  0.9636363636363636  1.0000
  O   O219      1.0  0.1666666666666652  0.9166666666666664  0.9636363636363636  1.0000
  O   O220      1.0  0.33333333333333215  0.5833333333333329  0.9999999999999998  1.0000
  O   O221      1.0  0.08333333333333218  0.5833333333333329  0.9999999999999998  1.0000
  O   O222      1.0  0.4166666666666652  0.9166666666666664  0.9636363636363636  1.0000
  O   O223      1.0  0.4166666666666653  0.6666666666666662  0.9636363636363636  1.0000
  O   O224      1.0  0.08333333333333216  0.833333333333333  0.9999999999999998  1.0000
  Ce  Ce113     1.0  0.49999999999999994  0.0  3.2799032947515134e-18  1.0000
  Ce  Ce114     1.0  0.75  0.24999999999999992  3.9188420690983295e-19  1.0000
  Ce  Ce115     1.0  0.7499999999999999  0.0  -3.2799032947515134e-18  1.0000
  Ce  Ce116     1.0  0.49999999999999994  0.24999999999999992  1.8358937508306736e-18  1.0000
  O   O225      1.0  0.9999999999999999  0.0  0.054545454545454536  1.0000
  O   O226      1.0  0.8333333333333331  0.33333333333333337  0.01818181818181818  1.0000
  O   O227      1.0  0.8333333333333329  0.08333333333333333  0.01818181818181817  1.0000
  O   O228      1.0  8.470899351171043e-17  0.24999999999999992  0.054545454545454536  1.0000
  O   O229      1.0  0.75  0.24999999999999992  0.054545454545454536  1.0000
  O   O230      1.0  0.583333333333333  0.08333333333333334  0.018181818181818184  1.0000
  O   O231      1.0  0.5833333333333334  0.33333333333333337  0.01818181818181818  1.0000
  O   O232      1.0  0.7499999999999999  0.0  0.054545454545454536  1.0000
  Ce  Ce117     1.0  0.8333333333333331  0.3333333333333333  0.07272727272727272  1.0000
  Ce  Ce118     1.0  0.5833333333333328  0.08333333333333333  0.07272727272727271  1.0000
  Ce  Ce119     1.0  0.583333333333333  0.3333333333333333  0.07272727272727271  1.0000
  Ce  Ce120     1.0  0.833333333333333  0.08333333333333333  0.07272727272727272  1.0000
  O   O233      1.0  0.8333333333333329  0.3333333333333333  0.12727272727272723  1.0000
  O   O234      1.0  0.6666666666666665  0.16666666666666666  0.09090909090909088  1.0000
  O   O235      1.0  0.6666666666666664  0.41666666666666663  0.09090909090909088  1.0000
  O   O236      1.0  0.8333333333333327  0.08333333333333334  0.12727272727272723  1.0000
  O   O237      1.0  0.5833333333333329  0.08333333333333333  0.12727272727272723  1.0000
  O   O238      1.0  0.9166666666666663  0.41666666666666663  0.09090909090909088  1.0000
  O   O239      1.0  0.9166666666666664  0.16666666666666666  0.09090909090909088  1.0000
  O   O240      1.0  0.583333333333333  0.3333333333333333  0.12727272727272723  1.0000
  Ce  Ce121     1.0  0.6666666666666665  0.16666666666666657  0.14545454545454545  1.0000
  Ce  Ce122     1.0  0.9166666666666663  0.41666666666666663  0.14545454545454545  1.0000
  Ce  Ce123     1.0  0.9166666666666663  0.16666666666666657  0.14545454545454545  1.0000
  Ce  Ce124     1.0  0.6666666666666664  0.41666666666666663  0.14545454545454545  1.0000
  O   O241      1.0  0.6666666666666663  0.16666666666666657  0.19999999999999998  1.0000
  O   O242      1.0  0.9999999999999997  2.153157751920431e-18  0.1636363636363636  1.0000
  O   O243      1.0  0.9999999999999997  0.24999999999999992  0.16363636363636358  1.0000
  O   O244      1.0  0.6666666666666663  0.4166666666666666  0.2  1.0000
  O   O245      1.0  0.9166666666666663  0.41666666666666663  0.19999999999999998  1.0000
  O   O246      1.0  0.7499999999999998  0.24999999999999992  0.1636363636363636  1.0000
  O   O247      1.0  0.7499999999999998  1.4555414165617894e-17  0.16363636363636358  1.0000
  O   O248      1.0  0.9166666666666663  0.16666666666666657  0.19999999999999998  1.0000
  Ce  Ce125     1.0  0.9999999999999997  0.0  0.21818181818181814  1.0000
  Ce  Ce126     1.0  0.7499999999999997  0.2499999999999999  0.21818181818181814  1.0000
  Ce  Ce127     1.0  0.7499999999999996  0.0  0.21818181818181814  1.0000
  Ce  Ce128     1.0  0.9999999999999997  0.24999999999999992  0.21818181818181814  1.0000
  O   O249      1.0  0.9999999999999999  0.4999999999999997  0.2727272727272727  1.0000
  O   O250      1.0  0.8333333333333329  0.3333333333333333  0.23636363636363628  1.0000
  O   O251      1.0  0.8333333333333327  0.08333333333333329  0.23636363636363628  1.0000
  O   O252      1.0  0.9999999999999999  0.2499999999999999  0.27272727272727276  1.0000
  O   O253      1.0  0.7499999999999993  0.24999999999999992  0.2727272727272726  1.0000
  O   O254      1.0  0.5833333333333334  0.08333333333333326  0.23636363636363636  1.0000
  O   O255      1.0  0.5833333333333331  0.33333333333333315  0.23636363636363636  1.0000
  O   O256      1.0  0.7499999999999996  0.0  0.2727272727272726  1.0000
  Ce  Ce129     1.0  0.833333333333333  0.33333333333333315  0.2909090909090909  1.0000
  Ce  Ce130     1.0  0.5833333333333327  0.08333333333333337  0.2909090909090909  1.0000
  Ce  Ce131     1.0  0.5833333333333328  0.33333333333333315  0.29090909090909084  1.0000
  Ce  Ce132     1.0  0.8333333333333329  0.08333333333333329  0.2909090909090909  1.0000
  O   O257      1.0  0.8333333333333329  0.33333333333333315  0.3454545454545454  1.0000
  O   O258      1.0  0.6666666666666661  0.16666666666666657  0.309090909090909  1.0000
  O   O259      1.0  0.6666666666666663  0.4166666666666665  0.309090909090909  1.0000
  O   O260      1.0  0.8333333333333327  0.08333333333333312  0.3454545454545454  1.0000
  O   O261      1.0  0.5833333333333329  0.08333333333333329  0.3454545454545454  1.0000
  O   O262      1.0  0.9166666666666664  0.4166666666666665  0.3090909090909091  1.0000
  O   O263      1.0  0.9166666666666662  0.16666666666666657  0.3090909090909091  1.0000
  O   O264      1.0  0.5833333333333329  0.33333333333333315  0.3454545454545454  1.0000
  Ce  Ce133     1.0  0.6666666666666661  0.16666666666666657  0.36363636363636354  1.0000
  Ce  Ce134     1.0  0.9166666666666659  0.41666666666666663  0.36363636363636354  1.0000
  Ce  Ce135     1.0  0.9166666666666661  0.16666666666666657  0.36363636363636354  1.0000
  Ce  Ce136     1.0  0.6666666666666657  0.41666666666666663  0.36363636363636354  1.0000
  O   O265      1.0  0.6666666666666665  0.16666666666666652  0.4181818181818182  1.0000
  O   O266      1.0  0.9999999999999994  0.4999999999999998  0.3818181818181816  1.0000
  O   O267      1.0  0.9999999999999997  0.2499999999999999  0.3818181818181818  1.0000
  O   O268      1.0  0.6666666666666661  0.4166666666666665  0.41818181818181804  1.0000
  O   O269      1.0  0.9166666666666664  0.4166666666666665  0.41818181818181804  1.0000
  O   O270      1.0  0.7499999999999997  0.2499999999999999  0.3818181818181818  1.0000
  O   O271      1.0  0.7499999999999997  0.4999999999999997  0.3818181818181818  1.0000
  O   O272      1.0  0.9166666666666663  0.16666666666666657  0.41818181818181804  1.0000
  Ce  Ce137     1.0  0.9999999999999994  0.0  0.4363636363636363  1.0000
  Ce  Ce138     1.0  0.7499999999999997  0.2499999999999999  0.4363636363636363  1.0000
  Ce  Ce139     1.0  0.7499999999999997  0.4999999999999997  0.4363636363636363  1.0000
  Ce  Ce140     1.0  0.9999999999999994  0.2499999999999999  0.4363636363636363  1.0000
  O   O273      1.0  0.999999999999999  0.4999999999999997  0.4909090909090909  1.0000
  O   O274      1.0  0.8333333333333327  0.33333333333333315  0.45454545454545436  1.0000
  O   O275      1.0  0.8333333333333325  0.08333333333333312  0.4545454545454545  1.0000
  O   O276      1.0  0.9999999999999994  0.2499999999999999  0.4909090909090908  1.0000
  O   O277      1.0  0.7499999999999997  0.2499999999999999  0.4909090909090908  1.0000
  O   O278      1.0  0.5833333333333328  0.08333333333333312  0.45454545454545453  1.0000
  O   O279      1.0  0.5833333333333329  0.33333333333333315  0.45454545454545453  1.0000
  O   O280      1.0  0.7499999999999996  0.0  0.4909090909090908  1.0000
  Ce  Ce141     1.0  0.8333333333333327  0.33333333333333315  0.5090909090909089  1.0000
  Ce  Ce142     1.0  0.5833333333333325  0.08333333333333337  0.5090909090909089  1.0000
  Ce  Ce143     1.0  0.5833333333333321  0.33333333333333315  0.5090909090909089  1.0000
  Ce  Ce144     1.0  0.8333333333333325  0.08333333333333312  0.5090909090909089  1.0000
  O   O281      1.0  0.8333333333333328  0.33333333333333304  0.5636363636363635  1.0000
  O   O282      1.0  0.6666666666666661  0.16666666666666674  0.5272727272727271  1.0000
  O   O283      1.0  0.6666666666666656  0.41666666666666663  0.5272727272727271  1.0000
  O   O284      1.0  0.8333333333333329  0.08333333333333302  0.5636363636363635  1.0000
  O   O285      1.0  0.5833333333333325  0.08333333333333337  0.5636363636363635  1.0000
  O   O286      1.0  0.916666666666666  0.4166666666666665  0.5272727272727271  1.0000
  O   O287      1.0  0.9166666666666661  0.16666666666666652  0.5272727272727271  1.0000
  O   O288      1.0  0.5833333333333325  0.3333333333333335  0.5636363636363635  1.0000
  Ce  Ce145     1.0  0.6666666666666661  0.16666666666666652  0.5818181818181818  1.0000
  Ce  Ce146     1.0  0.9166666666666661  0.4166666666666663  0.5818181818181818  1.0000
  Ce  Ce147     1.0  0.9166666666666661  0.16666666666666652  0.5818181818181818  1.0000
  Ce  Ce148     1.0  0.6666666666666661  0.4166666666666665  0.5818181818181818  1.0000
  O   O289      1.0  0.6666666666666661  0.16666666666666652  0.6363636363636364  1.0000
  O   O290      1.0  0.9999999999999997  0.0  0.5999999999999999  1.0000
  O   O291      1.0  0.9999999999999992  0.24999999999999992  0.5999999999999999  1.0000
  O   O292      1.0  0.6666666666666665  0.4166666666666665  0.6363636363636361  1.0000
  O   O293      1.0  0.916666666666666  0.4166666666666665  0.6363636363636361  1.0000
  O   O294      1.0  0.7499999999999996  0.24999999999999972  0.5999999999999999  1.0000
  O   O295      1.0  0.7499999999999996  0.49999999999999944  0.5999999999999999  1.0000
  O   O296      1.0  0.9166666666666656  0.16666666666666652  0.6363636363636361  1.0000
  Ce  Ce149     1.0  0.999999999999999  0.0  0.6545454545454544  1.0000
  Ce  Ce150     1.0  0.7499999999999991  0.24999999999999972  0.6545454545454543  1.0000
  Ce  Ce151     1.0  0.7499999999999991  0.0  0.6545454545454544  1.0000
  Ce  Ce152     1.0  0.9999999999999992  0.24999999999999992  0.6545454545454544  1.0000
  O   O297      1.0  0.999999999999999  0.0  0.709090909090909  1.0000
  O   O298      1.0  0.833333333333332  0.3333333333333335  0.6727272727272724  1.0000
  O   O299      1.0  0.8333333333333321  0.08333333333333345  0.6727272727272724  1.0000
  O   O300      1.0  0.9999999999999992  0.24999999999999992  0.7090909090909089  1.0000
  O   O301      1.0  0.7499999999999984  0.24999999999999992  0.709090909090909  1.0000
  O   O302      1.0  0.5833333333333326  0.08333333333333326  0.6727272727272727  1.0000
  O   O303      1.0  0.5833333333333328  0.33333333333333304  0.6727272727272727  1.0000
  O   O304      1.0  0.7499999999999986  0.0  0.7090909090909089  1.0000
  Ce  Ce153     1.0  0.8333333333333323  0.33333333333333315  0.7272727272727271  1.0000
  Ce  Ce154     1.0  0.5833333333333326  0.08333333333333282  0.7272727272727271  1.0000
  Ce  Ce155     1.0  0.5833333333333326  0.33333333333333315  0.7272727272727271  1.0000
  Ce  Ce156     1.0  0.833333333333332  0.08333333333333326  0.7272727272727271  1.0000
  O   O305      1.0  0.8333333333333327  0.33333333333333315  0.7818181818181817  1.0000
  O   O306      1.0  0.6666666666666657  0.16666666666666652  0.7454545454545454  1.0000
  O   O307      1.0  0.6666666666666656  0.4166666666666665  0.7454545454545454  1.0000
  O   O308      1.0  0.8333333333333325  0.08333333333333326  0.7818181818181817  1.0000
  O   O309      1.0  0.5833333333333321  0.08333333333333326  0.7818181818181817  1.0000
  O   O310      1.0  0.9166666666666655  0.4166666666666665  0.7454545454545454  1.0000
  O   O311      1.0  0.9166666666666656  0.16666666666666652  0.7454545454545454  1.0000
  O   O312      1.0  0.5833333333333321  0.33333333333333315  0.7818181818181817  1.0000
  Ce  Ce157     1.0  0.6666666666666652  0.16666666666666674  0.7999999999999999  1.0000
  Ce  Ce158     1.0  0.9166666666666656  0.4166666666666663  0.7999999999999999  1.0000
  Ce  Ce159     1.0  0.9166666666666657  0.16666666666666674  0.7999999999999999  1.0000
  Ce  Ce160     1.0  0.6666666666666656  0.4166666666666665  0.7999999999999999  1.0000
  O   O313      1.0  0.6666666666666652  0.16666666666666674  0.8545454545454544  1.0000
  O   O314      1.0  0.9999999999999997  0.4999999999999997  0.8181818181818182  1.0000
  O   O315      1.0  0.9999999999999997  0.24999999999999972  0.8181818181818182  1.0000
  O   O316      1.0  0.6666666666666652  0.4166666666666665  0.8545454545454544  1.0000
  O   O317      1.0  0.9166666666666661  0.4166666666666663  0.8545454545454546  1.0000
  O   O318      1.0  0.7499999999999991  0.24999999999999972  0.8181818181818179  1.0000
  O   O319      1.0  0.7499999999999992  0.4999999999999997  0.8181818181818179  1.0000
  O   O320      1.0  0.9166666666666662  0.16666666666666624  0.8545454545454546  1.0000
  Ce  Ce161     1.0  0.9999999999999986  0.0  0.8727272727272726  1.0000
  Ce  Ce162     1.0  0.7499999999999991  0.24999999999999956  0.8727272727272726  1.0000
  Ce  Ce163     1.0  0.7499999999999991  0.0  0.8727272727272726  1.0000
  Ce  Ce164     1.0  0.999999999999999  0.24999999999999972  0.8727272727272726  1.0000
  O   O321      1.0  0.999999999999999  0.0  0.9272727272727272  1.0000
  O   O322      1.0  0.8333333333333323  0.33333333333333315  0.8909090909090908  1.0000
  O   O323      1.0  0.833333333333332  0.08333333333333326  0.8909090909090908  1.0000
  O   O324      1.0  0.999999999999999  0.24999999999999972  0.9272727272727272  1.0000
  O   O325      1.0  0.7499999999999981  0.24999999999999972  0.9272727272727271  1.0000
  O   O326      1.0  0.5833333333333313  0.08333333333333326  0.8909090909090908  1.0000
  O   O327      1.0  0.5833333333333321  0.33333333333333315  0.8909090909090908  1.0000
  O   O328      1.0  0.7499999999999982  0.0  0.9272727272727271  1.0000
  Ce  Ce165     1.0  0.8333333333333328  0.33333333333333304  0.9454545454545454  1.0000
  Ce  Ce166     1.0  0.5833333333333321  0.08333333333333282  0.9454545454545454  1.0000
  Ce  Ce167     1.0  0.5833333333333328  0.33333333333333304  0.9454545454545454  1.0000
  Ce  Ce168     1.0  0.8333333333333329  0.08333333333333302  0.9454545454545454  1.0000
  O   O329      1.0  0.833333333333332  0.33333333333333304  0.9999999999999998  1.0000
  O   O330      1.0  0.6666666666666652  0.16666666666666624  0.9636363636363636  1.0000
  O   O331      1.0  0.6666666666666652  0.4166666666666665  0.9636363636363636  1.0000
  O   O332      1.0  0.8333333333333321  0.08333333333333302  0.9999999999999998  1.0000
  O   O333      1.0  0.5833333333333321  0.08333333333333302  0.9999999999999998  1.0000
  O   O334      1.0  0.9166666666666651  0.4166666666666665  0.9636363636363636  1.0000
  O   O335      1.0  0.9166666666666653  0.16666666666666624  0.9636363636363636  1.0000
  O   O336      1.0  0.5833333333333321  0.33333333333333304  0.9999999999999998  1.0000
  Ce  Ce169     1.0  0.5  0.4999999999999999  3.2799032947515134e-18  1.0000
  Ce  Ce170     1.0  0.75  0.7499999999999999  3.9188420690983295e-19  1.0000
  Ce  Ce171     1.0  0.75  0.4999999999999999  -3.2799032947515134e-18  1.0000
  Ce  Ce172     1.0  0.4999999999999999  0.75  1.8358937508306736e-18  1.0000
  O   O337      1.0  0.9999999999999999  0.4999999999999999  0.054545454545454536  1.0000
  O   O338      1.0  0.8333333333333331  0.8333333333333333  0.01818181818181818  1.0000
  O   O339      1.0  0.8333333333333333  0.5833333333333333  0.01818181818181817  1.0000
  O   O340      1.0  6.986969459401351e-17  0.7499999999999999  0.054545454545454536  1.0000
  O   O341      1.0  0.75  0.7499999999999999  0.054545454545454536  1.0000
  O   O342      1.0  0.5833333333333334  0.5833333333333333  0.018181818181818184  1.0000
  O   O343      1.0  0.5833333333333334  0.8333333333333333  0.01818181818181818  1.0000
  O   O344      1.0  0.7499999999999999  0.4999999999999999  0.054545454545454536  1.0000
  Ce  Ce173     1.0  0.8333333333333331  0.8333333333333333  0.07272727272727272  1.0000
  Ce  Ce174     1.0  0.5833333333333329  0.5833333333333333  0.07272727272727271  1.0000
  Ce  Ce175     1.0  0.5833333333333329  0.8333333333333333  0.07272727272727271  1.0000
  Ce  Ce176     1.0  0.8333333333333333  0.5833333333333333  0.07272727272727272  1.0000
  O   O345      1.0  0.8333333333333329  0.8333333333333333  0.12727272727272723  1.0000
  O   O346      1.0  0.6666666666666665  0.6666666666666666  0.09090909090909088  1.0000
  O   O347      1.0  0.6666666666666666  0.9166666666666665  0.09090909090909088  1.0000
  O   O348      1.0  0.833333333333333  0.5833333333333333  0.12727272727272723  1.0000
  O   O349      1.0  0.583333333333333  0.5833333333333333  0.12727272727272723  1.0000
  O   O350      1.0  0.9166666666666665  0.9166666666666665  0.09090909090909088  1.0000
  O   O351      1.0  0.9166666666666665  0.6666666666666666  0.09090909090909088  1.0000
  O   O352      1.0  0.5833333333333329  0.8333333333333333  0.12727272727272723  1.0000
  Ce  Ce177     1.0  0.6666666666666665  0.6666666666666666  0.14545454545454545  1.0000
  Ce  Ce178     1.0  0.9166666666666663  0.9166666666666665  0.14545454545454545  1.0000
  Ce  Ce179     1.0  0.9166666666666663  0.6666666666666666  0.14545454545454545  1.0000
  Ce  Ce180     1.0  0.6666666666666666  0.9166666666666665  0.14545454545454545  1.0000
  O   O353      1.0  0.6666666666666662  0.6666666666666666  0.19999999999999998  1.0000
  O   O354      1.0  0.9999999999999997  0.4999999999999999  0.1636363636363636  1.0000
  O   O355      1.0  0.9999999999999999  0.75  0.16363636363636358  1.0000
  O   O356      1.0  0.6666666666666664  0.9166666666666664  0.2  1.0000
  O   O357      1.0  0.9166666666666663  0.9166666666666665  0.19999999999999998  1.0000
  O   O358      1.0  0.7499999999999997  0.75  0.1636363636363636  1.0000
  O   O359      1.0  0.7499999999999998  0.4999999999999999  0.16363636363636358  1.0000
  O   O360      1.0  0.9166666666666663  0.6666666666666666  0.19999999999999998  1.0000
  Ce  Ce181     1.0  0.9999999999999997  0.4999999999999999  0.21818181818181814  1.0000
  Ce  Ce182     1.0  0.7499999999999996  0.7499999999999999  0.21818181818181814  1.0000
  Ce  Ce183     1.0  0.7499999999999996  0.4999999999999999  0.21818181818181814  1.0000
  Ce  Ce184     1.0  0.9999999999999997  0.75  0.21818181818181814  1.0000
  O   O361      1.0  0.9999999999999999  0.9999999999999999  0.2727272727272727  1.0000
  O   O362      1.0  0.8333333333333329  0.8333333333333333  0.23636363636363628  1.0000
  O   O363      1.0  0.8333333333333328  0.5833333333333333  0.23636363636363628  1.0000
  O   O364      1.0  0.9999999999999996  0.7499999999999999  0.27272727272727276  1.0000
  O   O365      1.0  0.7499999999999992  0.75  0.2727272727272726  1.0000
  O   O366      1.0  0.5833333333333334  0.5833333333333333  0.23636363636363636  1.0000
  O   O367      1.0  0.583333333333333  0.8333333333333333  0.23636363636363636  1.0000
  O   O368      1.0  0.7499999999999996  0.4999999999999999  0.2727272727272726  1.0000
  Ce  Ce185     1.0  0.8333333333333329  0.8333333333333333  0.2909090909090909  1.0000
  Ce  Ce186     1.0  0.5833333333333327  0.5833333333333333  0.2909090909090909  1.0000
  Ce  Ce187     1.0  0.5833333333333327  0.8333333333333333  0.29090909090909084  1.0000
  Ce  Ce188     1.0  0.833333333333333  0.5833333333333333  0.2909090909090909  1.0000
  O   O369      1.0  0.8333333333333327  0.8333333333333331  0.3454545454545454  1.0000
  O   O370      1.0  0.6666666666666661  0.6666666666666666  0.309090909090909  1.0000
  O   O371      1.0  0.6666666666666664  0.9166666666666664  0.309090909090909  1.0000
  O   O372      1.0  0.8333333333333326  0.5833333333333331  0.3454545454545454  1.0000
  O   O373      1.0  0.5833333333333329  0.5833333333333333  0.3454545454545454  1.0000
  O   O374      1.0  0.9166666666666665  0.9166666666666664  0.3090909090909091  1.0000
  O   O375      1.0  0.9166666666666663  0.6666666666666666  0.3090909090909091  1.0000
  O   O376      1.0  0.5833333333333328  0.8333333333333333  0.3454545454545454  1.0000
  Ce  Ce189     1.0  0.6666666666666661  0.6666666666666666  0.36363636363636354  1.0000
  Ce  Ce190     1.0  0.9166666666666659  0.9166666666666665  0.36363636363636354  1.0000
  Ce  Ce191     1.0  0.9166666666666661  0.6666666666666666  0.36363636363636354  1.0000
  Ce  Ce192     1.0  0.666666666666666  0.9166666666666665  0.36363636363636354  1.0000
  O   O377      1.0  0.6666666666666665  0.6666666666666663  0.4181818181818182  1.0000
  O   O378      1.0  0.9999999999999997  0.9999999999999999  0.3818181818181816  1.0000
  O   O379      1.0  0.9999999999999996  0.7499999999999999  0.3818181818181818  1.0000
  O   O380      1.0  0.666666666666666  0.9166666666666664  0.41818181818181804  1.0000
  O   O381      1.0  0.9166666666666663  0.9166666666666664  0.41818181818181804  1.0000
  O   O382      1.0  0.7499999999999996  0.7499999999999999  0.3818181818181818  1.0000
  O   O383      1.0  0.7499999999999994  0.9999999999999999  0.3818181818181818  1.0000
  O   O384      1.0  0.9166666666666663  0.6666666666666666  0.41818181818181804  1.0000
  Ce  Ce193     1.0  0.9999999999999994  0.4999999999999999  0.4363636363636363  1.0000
  Ce  Ce194     1.0  0.7499999999999996  0.7499999999999999  0.4363636363636363  1.0000
  Ce  Ce195     1.0  0.7499999999999994  0.9999999999999999  0.4363636363636363  1.0000
  Ce  Ce196     1.0  0.9999999999999991  0.7499999999999999  0.4363636363636363  1.0000
  O   O385      1.0  0.999999999999999  0.9999999999999999  0.4909090909090909  1.0000
  O   O386      1.0  0.8333333333333325  0.8333333333333333  0.45454545454545436  1.0000
  O   O387      1.0  0.8333333333333326  0.5833333333333331  0.4545454545454545  1.0000
  O   O388      1.0  0.9999999999999991  0.7499999999999999  0.4909090909090908  1.0000
  O   O389      1.0  0.7499999999999996  0.7499999999999999  0.4909090909090908  1.0000
  O   O390      1.0  0.5833333333333328  0.5833333333333331  0.45454545454545453  1.0000
  O   O391      1.0  0.5833333333333328  0.8333333333333331  0.45454545454545453  1.0000
  O   O392      1.0  0.7499999999999996  0.4999999999999999  0.4909090909090908  1.0000
  Ce  Ce197     1.0  0.8333333333333325  0.8333333333333333  0.5090909090909089  1.0000
  Ce  Ce198     1.0  0.5833333333333326  0.5833333333333333  0.5090909090909089  1.0000
  Ce  Ce199     1.0  0.5833333333333321  0.8333333333333333  0.5090909090909089  1.0000
  Ce  Ce200     1.0  0.8333333333333326  0.5833333333333331  0.5090909090909089  1.0000
  O   O393      1.0  0.833333333333333  0.833333333333333  0.5636363636363635  1.0000
  O   O394      1.0  0.666666666666666  0.6666666666666667  0.5272727272727271  1.0000
  O   O395      1.0  0.6666666666666657  0.9166666666666665  0.5272727272727271  1.0000
  O   O396      1.0  0.8333333333333331  0.5833333333333329  0.5636363636363635  1.0000
  O   O397      1.0  0.5833333333333326  0.5833333333333333  0.5636363636363635  1.0000
  O   O398      1.0  0.9166666666666661  0.9166666666666664  0.5272727272727271  1.0000
  O   O399      1.0  0.9166666666666662  0.6666666666666663  0.5272727272727271  1.0000
  O   O400      1.0  0.5833333333333325  0.8333333333333334  0.5636363636363635  1.0000
  Ce  Ce201     1.0  0.6666666666666661  0.6666666666666663  0.5818181818181818  1.0000
  Ce  Ce202     1.0  0.916666666666666  0.9166666666666663  0.5818181818181818  1.0000
  Ce  Ce203     1.0  0.9166666666666662  0.6666666666666663  0.5818181818181818  1.0000
  Ce  Ce204     1.0  0.666666666666666  0.9166666666666664  0.5818181818181818  1.0000
  O   O401      1.0  0.6666666666666661  0.6666666666666663  0.6363636363636364  1.0000
  O   O402      1.0  0.9999999999999994  0.4999999999999999  0.5999999999999999  1.0000
  O   O403      1.0  0.999999999999999  0.75  0.5999999999999999  1.0000
  O   O404      1.0  0.6666666666666664  0.9166666666666664  0.6363636363636361  1.0000
  O   O405      1.0  0.9166666666666661  0.9166666666666664  0.6363636363636361  1.0000
  O   O406      1.0  0.7499999999999996  0.7499999999999998  0.5999999999999999  1.0000
  O   O407      1.0  0.7499999999999996  0.9999999999999997  0.5999999999999999  1.0000
  O   O408      1.0  0.9166666666666657  0.6666666666666663  0.6363636363636361  1.0000
  Ce  Ce205     1.0  0.9999999999999992  0.4999999999999999  0.6545454545454544  1.0000
  Ce  Ce206     1.0  0.7499999999999991  0.7499999999999998  0.6545454545454543  1.0000
  Ce  Ce207     1.0  0.7499999999999991  0.4999999999999999  0.6545454545454544  1.0000
  Ce  Ce208     1.0  0.999999999999999  0.75  0.6545454545454544  1.0000
  O   O409      1.0  0.9999999999999992  0.4999999999999999  0.709090909090909  1.0000
  O   O410      1.0  0.8333333333333321  0.8333333333333334  0.6727272727272724  1.0000
  O   O411      1.0  0.833333333333332  0.5833333333333335  0.6727272727272724  1.0000
  O   O412      1.0  0.999999999999999  0.75  0.7090909090909089  1.0000
  O   O413      1.0  0.7499999999999984  0.75  0.709090909090909  1.0000
  O   O414      1.0  0.5833333333333326  0.5833333333333333  0.6727272727272727  1.0000
  O   O415      1.0  0.5833333333333328  0.833333333333333  0.6727272727272727  1.0000
  O   O416      1.0  0.7499999999999984  0.4999999999999999  0.7090909090909089  1.0000
  Ce  Ce209     1.0  0.833333333333332  0.8333333333333333  0.7272727272727271  1.0000
  Ce  Ce210     1.0  0.5833333333333325  0.5833333333333328  0.7272727272727271  1.0000
  Ce  Ce211     1.0  0.5833333333333325  0.8333333333333333  0.7272727272727271  1.0000
  Ce  Ce212     1.0  0.8333333333333321  0.5833333333333333  0.7272727272727271  1.0000
  O   O417      1.0  0.8333333333333325  0.8333333333333333  0.7818181818181817  1.0000
  O   O418      1.0  0.6666666666666656  0.6666666666666663  0.7454545454545454  1.0000
  O   O419      1.0  0.6666666666666655  0.9166666666666664  0.7454545454545454  1.0000
  O   O420      1.0  0.8333333333333326  0.5833333333333333  0.7818181818181817  1.0000
  O   O421      1.0  0.5833333333333321  0.5833333333333333  0.7818181818181817  1.0000
  O   O422      1.0  0.9166666666666656  0.9166666666666664  0.7454545454545454  1.0000
  O   O423      1.0  0.9166666666666657  0.6666666666666663  0.7454545454545454  1.0000
  O   O424      1.0  0.5833333333333321  0.8333333333333333  0.7818181818181817  1.0000
  Ce  Ce213     1.0  0.6666666666666652  0.6666666666666667  0.7999999999999999  1.0000
  Ce  Ce214     1.0  0.9166666666666655  0.9166666666666663  0.7999999999999999  1.0000
  Ce  Ce215     1.0  0.9166666666666655  0.6666666666666667  0.7999999999999999  1.0000
  Ce  Ce216     1.0  0.6666666666666655  0.9166666666666664  0.7999999999999999  1.0000
  O   O425      1.0  0.6666666666666652  0.6666666666666667  0.8545454545454544  1.0000
  O   O426      1.0  0.9999999999999994  0.9999999999999999  0.8181818181818182  1.0000
  O   O427      1.0  0.9999999999999996  0.7499999999999998  0.8181818181818182  1.0000
  O   O428      1.0  0.6666666666666651  0.9166666666666664  0.8545454545454544  1.0000
  O   O429      1.0  0.916666666666666  0.9166666666666663  0.8545454545454546  1.0000
  O   O430      1.0  0.7499999999999991  0.7499999999999998  0.8181818181818179  1.0000
  O   O431      1.0  0.7499999999999988  0.9999999999999999  0.8181818181818179  1.0000
  O   O432      1.0  0.9166666666666661  0.6666666666666662  0.8545454545454546  1.0000
  Ce  Ce217     1.0  0.9999999999999988  0.4999999999999999  0.8727272727272726  1.0000
  Ce  Ce218     1.0  0.7499999999999988  0.7499999999999994  0.8727272727272726  1.0000
  Ce  Ce219     1.0  0.7499999999999991  0.4999999999999999  0.8727272727272726  1.0000
  Ce  Ce220     1.0  0.9999999999999991  0.7499999999999998  0.8727272727272726  1.0000
  O   O433      1.0  0.9999999999999992  0.4999999999999999  0.9272727272727272  1.0000
  O   O434      1.0  0.833333333333332  0.8333333333333333  0.8909090909090908  1.0000
  O   O435      1.0  0.8333333333333321  0.5833333333333333  0.8909090909090908  1.0000
  O   O436      1.0  0.9999999999999991  0.7499999999999998  0.9272727272727272  1.0000
  O   O437      1.0  0.7499999999999981  0.7499999999999998  0.9272727272727271  1.0000
  O   O438      1.0  0.5833333333333313  0.5833333333333333  0.8909090909090908  1.0000
  O   O439      1.0  0.5833333333333321  0.8333333333333333  0.8909090909090908  1.0000
  O   O440      1.0  0.7499999999999981  0.4999999999999999  0.9272727272727271  1.0000
  Ce  Ce221     1.0  0.833333333333333  0.833333333333333  0.9454545454545454  1.0000
  Ce  Ce222     1.0  0.583333333333332  0.5833333333333328  0.9454545454545454  1.0000
  Ce  Ce223     1.0  0.5833333333333328  0.833333333333333  0.9454545454545454  1.0000
  Ce  Ce224     1.0  0.8333333333333331  0.5833333333333329  0.9454545454545454  1.0000
  O   O441      1.0  0.8333333333333321  0.833333333333333  0.9999999999999998  1.0000
  O   O442      1.0  0.6666666666666653  0.6666666666666662  0.9636363636363636  1.0000
  O   O443      1.0  0.6666666666666651  0.9166666666666664  0.9636363636363636  1.0000
  O   O444      1.0  0.8333333333333323  0.5833333333333329  0.9999999999999998  1.0000
  O   O445      1.0  0.5833333333333321  0.5833333333333329  0.9999999999999998  1.0000
  O   O446      1.0  0.9166666666666652  0.9166666666666664  0.9636363636363636  1.0000
  O   O447      1.0  0.9166666666666652  0.6666666666666662  0.9636363636363636  1.0000
  O   O448      1.0  0.5833333333333321  0.833333333333333  0.9999999999999998  1.0000
