# generated using pymatgen
data_CeO2
_symmetry_space_group_name_H-M   'P 1'
_cell_length_a   15.46428487
_cell_length_b   15.46428487
_cell_length_c   290.41889937
_cell_angle_alpha   90.38136499
_cell_angle_beta   90.00000000
_cell_angle_gamma   60.00000000
_symmetry_Int_Tables_number   1
_chemical_formula_structural   CeO2
_chemical_formula_sum   'Ce448 O896'
_cell_volume   60145.39235869
_cell_formula_units_Z   448
loop_
 _symmetry_equiv_pos_site_id
 _symmetry_equiv_pos_as_xyz
  1  'x, y, z'
loop_
 _atom_type_symbol
 _atom_type_oxidation_number
  Ce4+  4.0
  O2-  -2.0
loop_
 _atom_site_type_symbol
 _atom_site_label
 _atom_site_symmetry_multiplicity
 _atom_site_fract_x
 _atom_site_fract_y
 _atom_site_fract_z
 _atom_site_occupancy
  Ce4+  Ce0  1  0.16711957  0.16576087  0.99456522  1.0
  Ce4+  Ce1  1  0.16711957  0.41576087  0.99456522  1.0
  Ce4+  Ce2  1  0.16711957  0.66576087  0.99456522  1.0
  Ce4+  Ce3  1  0.16711957  0.91576087  0.99456522  1.0
  Ce4+  Ce4  1  0.41711957  0.16576087  0.99456522  1.0
  Ce4+  Ce5  1  0.41711957  0.41576087  0.99456522  1.0
  Ce4+  Ce6  1  0.41711957  0.66576087  0.99456522  1.0
  Ce4+  Ce7  1  0.41711957  0.91576087  0.99456522  1.0
  Ce4+  Ce8  1  0.66711957  0.16576087  0.99456522  1.0
  Ce4+  Ce9  1  0.66711957  0.41576087  0.99456522  1.0
  Ce4+  Ce10  1  0.66711957  0.66576087  0.99456522  1.0
  Ce4+  Ce11  1  0.66711957  0.91576087  0.99456522  1.0
  Ce4+  Ce12  1  0.91711957  0.16576087  0.99456522  1.0
  Ce4+  Ce13  1  0.91711957  0.41576087  0.99456522  1.0
  Ce4+  Ce14  1  0.91711957  0.66576087  0.99456522  1.0
  Ce4+  Ce15  1  0.91711957  0.91576087  0.99456522  1.0
  Ce4+  Ce16  1  0.00135870  0.24728261  0.98369565  1.0
  Ce4+  Ce17  1  0.00135870  0.49728261  0.98369565  1.0
  Ce4+  Ce18  1  0.00135870  0.74728261  0.98369565  1.0
  Ce4+  Ce19  1  0.00135870  0.99728261  0.98369565  1.0
  Ce4+  Ce20  1  0.25135870  0.24728261  0.98369565  1.0
  Ce4+  Ce21  1  0.25135870  0.49728261  0.98369565  1.0
  Ce4+  Ce22  1  0.25135870  0.74728261  0.98369565  1.0
  Ce4+  Ce23  1  0.25135870  0.99728261  0.98369565  1.0
  Ce4+  Ce24  1  0.50135870  0.24728261  0.98369565  1.0
  Ce4+  Ce25  1  0.50135870  0.49728261  0.98369565  1.0
  Ce4+  Ce26  1  0.50135870  0.74728261  0.98369565  1.0
  Ce4+  Ce27  1  0.50135870  0.99728261  0.98369565  1.0
  Ce4+  Ce28  1  0.75135870  0.24728261  0.98369565  1.0
  Ce4+  Ce29  1  0.75135870  0.49728261  0.98369565  1.0
  Ce4+  Ce30  1  0.75135870  0.74728261  0.98369565  1.0
  Ce4+  Ce31  1  0.75135870  0.99728261  0.98369565  1.0
  Ce4+  Ce32  1  0.08559783  0.07880435  0.97282609  1.0
  Ce4+  Ce33  1  0.08559783  0.32880435  0.97282609  1.0
  Ce4+  Ce34  1  0.08559783  0.57880435  0.97282609  1.0
  Ce4+  Ce35  1  0.08559783  0.82880435  0.97282609  1.0
  Ce4+  Ce36  1  0.33559783  0.07880435  0.97282609  1.0
  Ce4+  Ce37  1  0.33559783  0.32880435  0.97282609  1.0
  Ce4+  Ce38  1  0.33559783  0.57880435  0.97282609  1.0
  Ce4+  Ce39  1  0.33559783  0.82880435  0.97282609  1.0
  Ce4+  Ce40  1  0.58559783  0.07880435  0.97282609  1.0
  Ce4+  Ce41  1  0.58559783  0.32880435  0.97282609  1.0
  Ce4+  Ce42  1  0.58559783  0.57880435  0.97282609  1.0
  Ce4+  Ce43  1  0.58559783  0.82880435  0.97282609  1.0
  Ce4+  Ce44  1  0.83559783  0.07880435  0.97282609  1.0
  Ce4+  Ce45  1  0.83559783  0.32880435  0.97282609  1.0
  Ce4+  Ce46  1  0.83559783  0.57880435  0.97282609  1.0
  Ce4+  Ce47  1  0.83559783  0.82880435  0.97282609  1.0
  Ce4+  Ce48  1  0.16983696  0.16032609  0.96195652  1.0
  Ce4+  Ce49  1  0.16983696  0.41032609  0.96195652  1.0
  Ce4+  Ce50  1  0.16983696  0.66032609  0.96195652  1.0
  Ce4+  Ce51  1  0.16983696  0.91032609  0.96195652  1.0
  Ce4+  Ce52  1  0.41983696  0.16032609  0.96195652  1.0
  Ce4+  Ce53  1  0.41983696  0.41032609  0.96195652  1.0
  Ce4+  Ce54  1  0.41983696  0.66032609  0.96195652  1.0
  Ce4+  Ce55  1  0.41983696  0.91032609  0.96195652  1.0
  Ce4+  Ce56  1  0.66983696  0.16032609  0.96195652  1.0
  Ce4+  Ce57  1  0.66983696  0.41032609  0.96195652  1.0
  Ce4+  Ce58  1  0.66983696  0.66032609  0.96195652  1.0
  Ce4+  Ce59  1  0.66983696  0.91032609  0.96195652  1.0
  Ce4+  Ce60  1  0.91983696  0.16032609  0.96195652  1.0
  Ce4+  Ce61  1  0.91983696  0.41032609  0.96195652  1.0
  Ce4+  Ce62  1  0.91983696  0.66032609  0.96195652  1.0
  Ce4+  Ce63  1  0.91983696  0.91032609  0.96195652  1.0
  Ce4+  Ce64  1  0.00407609  0.24184783  0.95108696  1.0
  Ce4+  Ce65  1  0.00407609  0.49184783  0.95108696  1.0
  Ce4+  Ce66  1  0.00407609  0.74184783  0.95108696  1.0
  Ce4+  Ce67  1  0.00407609  0.99184783  0.95108696  1.0
  Ce4+  Ce68  1  0.25407609  0.24184783  0.95108696  1.0
  Ce4+  Ce69  1  0.25407609  0.49184783  0.95108696  1.0
  Ce4+  Ce70  1  0.25407609  0.74184783  0.95108696  1.0
  Ce4+  Ce71  1  0.25407609  0.99184783  0.95108696  1.0
  Ce4+  Ce72  1  0.50407609  0.24184783  0.95108696  1.0
  Ce4+  Ce73  1  0.50407609  0.49184783  0.95108696  1.0
  Ce4+  Ce74  1  0.50407609  0.74184783  0.95108696  1.0
  Ce4+  Ce75  1  0.50407609  0.99184783  0.95108696  1.0
  Ce4+  Ce76  1  0.75407609  0.24184783  0.95108696  1.0
  Ce4+  Ce77  1  0.75407609  0.49184783  0.95108696  1.0
  Ce4+  Ce78  1  0.75407609  0.74184783  0.95108696  1.0
  Ce4+  Ce79  1  0.75407609  0.99184783  0.95108696  1.0
  Ce4+  Ce80  1  0.08831522  0.07336957  0.94021739  1.0
  Ce4+  Ce81  1  0.08831522  0.32336957  0.94021739  1.0
  Ce4+  Ce82  1  0.08831522  0.57336957  0.94021739  1.0
  Ce4+  Ce83  1  0.08831522  0.82336957  0.94021739  1.0
  Ce4+  Ce84  1  0.33831522  0.07336957  0.94021739  1.0
  Ce4+  Ce85  1  0.33831522  0.32336957  0.94021739  1.0
  Ce4+  Ce86  1  0.33831522  0.57336957  0.94021739  1.0
  Ce4+  Ce87  1  0.33831522  0.82336957  0.94021739  1.0
  Ce4+  Ce88  1  0.58831522  0.07336957  0.94021739  1.0
  Ce4+  Ce89  1  0.58831522  0.32336957  0.94021739  1.0
  Ce4+  Ce90  1  0.58831522  0.57336957  0.94021739  1.0
  Ce4+  Ce91  1  0.58831522  0.82336957  0.94021739  1.0
  Ce4+  Ce92  1  0.83831522  0.07336957  0.94021739  1.0
  Ce4+  Ce93  1  0.83831522  0.32336957  0.94021739  1.0
  Ce4+  Ce94  1  0.83831522  0.57336957  0.94021739  1.0
  Ce4+  Ce95  1  0.83831522  0.82336957  0.94021739  1.0
  Ce4+  Ce96  1  0.17255435  0.15489130  0.92934783  1.0
  Ce4+  Ce97  1  0.17255435  0.40489130  0.92934783  1.0
  Ce4+  Ce98  1  0.17255435  0.65489130  0.92934783  1.0
  Ce4+  Ce99  1  0.17255435  0.90489130  0.92934783  1.0
  Ce4+  Ce100  1  0.42255435  0.15489130  0.92934783  1.0
  Ce4+  Ce101  1  0.42255435  0.40489130  0.92934783  1.0
  Ce4+  Ce102  1  0.42255435  0.65489130  0.92934783  1.0
  Ce4+  Ce103  1  0.42255435  0.90489130  0.92934783  1.0
  Ce4+  Ce104  1  0.67255435  0.15489130  0.92934783  1.0
  Ce4+  Ce105  1  0.67255435  0.40489130  0.92934783  1.0
  Ce4+  Ce106  1  0.67255435  0.65489130  0.92934783  1.0
  Ce4+  Ce107  1  0.67255435  0.90489130  0.92934783  1.0
  Ce4+  Ce108  1  0.92255435  0.15489130  0.92934783  1.0
  Ce4+  Ce109  1  0.92255435  0.40489130  0.92934783  1.0
  Ce4+  Ce110  1  0.92255435  0.65489130  0.92934783  1.0
  Ce4+  Ce111  1  0.92255435  0.90489130  0.92934783  1.0
  Ce4+  Ce112  1  0.00679348  0.23641304  0.91847826  1.0
  Ce4+  Ce113  1  0.00679348  0.48641304  0.91847826  1.0
  Ce4+  Ce114  1  0.00679348  0.73641304  0.91847826  1.0
  Ce4+  Ce115  1  0.00679348  0.98641304  0.91847826  1.0
  Ce4+  Ce116  1  0.25679348  0.23641304  0.91847826  1.0
  Ce4+  Ce117  1  0.25679348  0.48641304  0.91847826  1.0
  Ce4+  Ce118  1  0.25679348  0.73641304  0.91847826  1.0
  Ce4+  Ce119  1  0.25679348  0.98641304  0.91847826  1.0
  Ce4+  Ce120  1  0.50679348  0.23641304  0.91847826  1.0
  Ce4+  Ce121  1  0.50679348  0.48641304  0.91847826  1.0
  Ce4+  Ce122  1  0.50679348  0.73641304  0.91847826  1.0
  Ce4+  Ce123  1  0.50679348  0.98641304  0.91847826  1.0
  Ce4+  Ce124  1  0.75679348  0.23641304  0.91847826  1.0
  Ce4+  Ce125  1  0.75679348  0.48641304  0.91847826  1.0
  Ce4+  Ce126  1  0.75679348  0.73641304  0.91847826  1.0
  Ce4+  Ce127  1  0.75679348  0.98641304  0.91847826  1.0
  Ce4+  Ce128  1  0.09103261  0.06793478  0.90760870  1.0
  Ce4+  Ce129  1  0.09103261  0.31793478  0.90760870  1.0
  Ce4+  Ce130  1  0.09103261  0.56793478  0.90760870  1.0
  Ce4+  Ce131  1  0.09103261  0.81793478  0.90760870  1.0
  Ce4+  Ce132  1  0.34103261  0.06793478  0.90760870  1.0
  Ce4+  Ce133  1  0.34103261  0.31793478  0.90760870  1.0
  Ce4+  Ce134  1  0.34103261  0.56793478  0.90760870  1.0
  Ce4+  Ce135  1  0.34103261  0.81793478  0.90760870  1.0
  Ce4+  Ce136  1  0.59103261  0.06793478  0.90760870  1.0
  Ce4+  Ce137  1  0.59103261  0.31793478  0.90760870  1.0
  Ce4+  Ce138  1  0.59103261  0.56793478  0.90760870  1.0
  Ce4+  Ce139  1  0.59103261  0.81793478  0.90760870  1.0
  Ce4+  Ce140  1  0.84103261  0.06793478  0.90760870  1.0
  Ce4+  Ce141  1  0.84103261  0.31793478  0.90760870  1.0
  Ce4+  Ce142  1  0.84103261  0.56793478  0.90760870  1.0
  Ce4+  Ce143  1  0.84103261  0.81793478  0.90760870  1.0
  Ce4+  Ce144  1  0.17527174  0.14945652  0.89673913  1.0
  Ce4+  Ce145  1  0.17527174  0.39945652  0.89673913  1.0
  Ce4+  Ce146  1  0.17527174  0.64945652  0.89673913  1.0
  Ce4+  Ce147  1  0.17527174  0.89945652  0.89673913  1.0
  Ce4+  Ce148  1  0.42527174  0.14945652  0.89673913  1.0
  Ce4+  Ce149  1  0.42527174  0.39945652  0.89673913  1.0
  Ce4+  Ce150  1  0.42527174  0.64945652  0.89673913  1.0
  Ce4+  Ce151  1  0.42527174  0.89945652  0.89673913  1.0
  Ce4+  Ce152  1  0.67527174  0.14945652  0.89673913  1.0
  Ce4+  Ce153  1  0.67527174  0.39945652  0.89673913  1.0
  Ce4+  Ce154  1  0.67527174  0.64945652  0.89673913  1.0
  Ce4+  Ce155  1  0.67527174  0.89945652  0.89673913  1.0
  Ce4+  Ce156  1  0.92527174  0.14945652  0.89673913  1.0
  Ce4+  Ce157  1  0.92527174  0.39945652  0.89673913  1.0
  Ce4+  Ce158  1  0.92527174  0.64945652  0.89673913  1.0
  Ce4+  Ce159  1  0.92527174  0.89945652  0.89673913  1.0
  Ce4+  Ce160  1  0.00951087  0.23097826  0.88586957  1.0
  Ce4+  Ce161  1  0.00951087  0.48097826  0.88586957  1.0
  Ce4+  Ce162  1  0.00951087  0.73097826  0.88586957  1.0
  Ce4+  Ce163  1  0.00951087  0.98097826  0.88586957  1.0
  Ce4+  Ce164  1  0.25951087  0.23097826  0.88586957  1.0
  Ce4+  Ce165  1  0.25951087  0.48097826  0.88586957  1.0
  Ce4+  Ce166  1  0.25951087  0.73097826  0.88586957  1.0
  Ce4+  Ce167  1  0.25951087  0.98097826  0.88586957  1.0
  Ce4+  Ce168  1  0.50951087  0.23097826  0.88586957  1.0
  Ce4+  Ce169  1  0.50951087  0.48097826  0.88586957  1.0
  Ce4+  Ce170  1  0.50951087  0.73097826  0.88586957  1.0
  Ce4+  Ce171  1  0.50951087  0.98097826  0.88586957  1.0
  Ce4+  Ce172  1  0.75951087  0.23097826  0.88586957  1.0
  Ce4+  Ce173  1  0.75951087  0.48097826  0.88586957  1.0
  Ce4+  Ce174  1  0.75951087  0.73097826  0.88586957  1.0
  Ce4+  Ce175  1  0.75951087  0.98097826  0.88586957  1.0
  Ce4+  Ce176  1  0.09375000  0.06250000  0.87500000  1.0
  Ce4+  Ce177  1  0.09375000  0.31250000  0.87500000  1.0
  Ce4+  Ce178  1  0.09375000  0.56250000  0.87500000  1.0
  Ce4+  Ce179  1  0.09375000  0.81250000  0.87500000  1.0
  Ce4+  Ce180  1  0.34375000  0.06250000  0.87500000  1.0
  Ce4+  Ce181  1  0.34375000  0.31250000  0.87500000  1.0
  Ce4+  Ce182  1  0.34375000  0.56250000  0.87500000  1.0
  Ce4+  Ce183  1  0.34375000  0.81250000  0.87500000  1.0
  Ce4+  Ce184  1  0.59375000  0.06250000  0.87500000  1.0
  Ce4+  Ce185  1  0.59375000  0.31250000  0.87500000  1.0
  Ce4+  Ce186  1  0.59375000  0.56250000  0.87500000  1.0
  Ce4+  Ce187  1  0.59375000  0.81250000  0.87500000  1.0
  Ce4+  Ce188  1  0.84375000  0.06250000  0.87500000  1.0
  Ce4+  Ce189  1  0.84375000  0.31250000  0.87500000  1.0
  Ce4+  Ce190  1  0.84375000  0.56250000  0.87500000  1.0
  Ce4+  Ce191  1  0.84375000  0.81250000  0.87500000  1.0
  Ce4+  Ce192  1  0.17798913  0.14402174  0.86413043  1.0
  Ce4+  Ce193  1  0.17798913  0.39402174  0.86413043  1.0
  Ce4+  Ce194  1  0.17798913  0.64402174  0.86413043  1.0
  Ce4+  Ce195  1  0.17798913  0.89402174  0.86413043  1.0
  Ce4+  Ce196  1  0.42798913  0.14402174  0.86413043  1.0
  Ce4+  Ce197  1  0.42798913  0.39402174  0.86413043  1.0
  Ce4+  Ce198  1  0.42798913  0.64402174  0.86413043  1.0
  Ce4+  Ce199  1  0.42798913  0.89402174  0.86413043  1.0
  Ce4+  Ce200  1  0.67798913  0.14402174  0.86413043  1.0
  Ce4+  Ce201  1  0.67798913  0.39402174  0.86413043  1.0
  Ce4+  Ce202  1  0.67798913  0.64402174  0.86413043  1.0
  Ce4+  Ce203  1  0.67798913  0.89402174  0.86413043  1.0
  Ce4+  Ce204  1  0.92798913  0.14402174  0.86413043  1.0
  Ce4+  Ce205  1  0.92798913  0.39402174  0.86413043  1.0
  Ce4+  Ce206  1  0.92798913  0.64402174  0.86413043  1.0
  Ce4+  Ce207  1  0.92798913  0.89402174  0.86413043  1.0
  Ce4+  Ce208  1  0.01222826  0.22554348  0.85326087  1.0
  Ce4+  Ce209  1  0.01222826  0.47554348  0.85326087  1.0
  Ce4+  Ce210  1  0.01222826  0.72554348  0.85326087  1.0
  Ce4+  Ce211  1  0.01222826  0.97554348  0.85326087  1.0
  Ce4+  Ce212  1  0.26222826  0.22554348  0.85326087  1.0
  Ce4+  Ce213  1  0.26222826  0.47554348  0.85326087  1.0
  Ce4+  Ce214  1  0.26222826  0.72554348  0.85326087  1.0
  Ce4+  Ce215  1  0.26222826  0.97554348  0.85326087  1.0
  Ce4+  Ce216  1  0.51222826  0.22554348  0.85326087  1.0
  Ce4+  Ce217  1  0.51222826  0.47554348  0.85326087  1.0
  Ce4+  Ce218  1  0.51222826  0.72554348  0.85326087  1.0
  Ce4+  Ce219  1  0.51222826  0.97554348  0.85326087  1.0
  Ce4+  Ce220  1  0.76222826  0.22554348  0.85326087  1.0
  Ce4+  Ce221  1  0.76222826  0.47554348  0.85326087  1.0
  Ce4+  Ce222  1  0.76222826  0.72554348  0.85326087  1.0
  Ce4+  Ce223  1  0.76222826  0.97554348  0.85326087  1.0
  Ce4+  Ce224  1  0.09646739  0.05706522  0.84239130  1.0
  Ce4+  Ce225  1  0.09646739  0.30706522  0.84239130  1.0
  Ce4+  Ce226  1  0.09646739  0.55706522  0.84239130  1.0
  Ce4+  Ce227  1  0.09646739  0.80706522  0.84239130  1.0
  Ce4+  Ce228  1  0.34646739  0.05706522  0.84239130  1.0
  Ce4+  Ce229  1  0.34646739  0.30706522  0.84239130  1.0
  Ce4+  Ce230  1  0.34646739  0.55706522  0.84239130  1.0
  Ce4+  Ce231  1  0.34646739  0.80706522  0.84239130  1.0
  Ce4+  Ce232  1  0.59646739  0.05706522  0.84239130  1.0
  Ce4+  Ce233  1  0.59646739  0.30706522  0.84239130  1.0
  Ce4+  Ce234  1  0.59646739  0.55706522  0.84239130  1.0
  Ce4+  Ce235  1  0.59646739  0.80706522  0.84239130  1.0
  Ce4+  Ce236  1  0.84646739  0.05706522  0.84239130  1.0
  Ce4+  Ce237  1  0.84646739  0.30706522  0.84239130  1.0
  Ce4+  Ce238  1  0.84646739  0.55706522  0.84239130  1.0
  Ce4+  Ce239  1  0.84646739  0.80706522  0.84239130  1.0
  Ce4+  Ce240  1  0.18070652  0.13858696  0.83152174  1.0
  Ce4+  Ce241  1  0.18070652  0.38858696  0.83152174  1.0
  Ce4+  Ce242  1  0.18070652  0.63858696  0.83152174  1.0
  Ce4+  Ce243  1  0.18070652  0.88858696  0.83152174  1.0
  Ce4+  Ce244  1  0.43070652  0.13858696  0.83152174  1.0
  Ce4+  Ce245  1  0.43070652  0.38858696  0.83152174  1.0
  Ce4+  Ce246  1  0.43070652  0.63858696  0.83152174  1.0
  Ce4+  Ce247  1  0.43070652  0.88858696  0.83152174  1.0
  Ce4+  Ce248  1  0.68070652  0.13858696  0.83152174  1.0
  Ce4+  Ce249  1  0.68070652  0.38858696  0.83152174  1.0
  Ce4+  Ce250  1  0.68070652  0.63858696  0.83152174  1.0
  Ce4+  Ce251  1  0.68070652  0.88858696  0.83152174  1.0
  Ce4+  Ce252  1  0.93070652  0.13858696  0.83152174  1.0
  Ce4+  Ce253  1  0.93070652  0.38858696  0.83152174  1.0
  Ce4+  Ce254  1  0.93070652  0.63858696  0.83152174  1.0
  Ce4+  Ce255  1  0.93070652  0.88858696  0.83152174  1.0
  Ce4+  Ce256  1  0.01494565  0.22010870  0.82065217  1.0
  Ce4+  Ce257  1  0.01494565  0.47010870  0.82065217  1.0
  Ce4+  Ce258  1  0.01494565  0.72010870  0.82065217  1.0
  Ce4+  Ce259  1  0.01494565  0.97010870  0.82065217  1.0
  Ce4+  Ce260  1  0.26494565  0.22010870  0.82065217  1.0
  Ce4+  Ce261  1  0.26494565  0.47010870  0.82065217  1.0
  Ce4+  Ce262  1  0.26494565  0.72010870  0.82065217  1.0
  Ce4+  Ce263  1  0.26494565  0.97010870  0.82065217  1.0
  Ce4+  Ce264  1  0.51494565  0.22010870  0.82065217  1.0
  Ce4+  Ce265  1  0.51494565  0.47010870  0.82065217  1.0
  Ce4+  Ce266  1  0.51494565  0.72010870  0.82065217  1.0
  Ce4+  Ce267  1  0.51494565  0.97010870  0.82065217  1.0
  Ce4+  Ce268  1  0.76494565  0.22010870  0.82065217  1.0
  Ce4+  Ce269  1  0.76494565  0.47010870  0.82065217  1.0
  Ce4+  Ce270  1  0.76494565  0.72010870  0.82065217  1.0
  Ce4+  Ce271  1  0.76494565  0.97010870  0.82065217  1.0
  Ce4+  Ce272  1  0.09918478  0.05163043  0.80978261  1.0
  Ce4+  Ce273  1  0.09918478  0.30163043  0.80978261  1.0
  Ce4+  Ce274  1  0.09918478  0.55163043  0.80978261  1.0
  Ce4+  Ce275  1  0.09918478  0.80163043  0.80978261  1.0
  Ce4+  Ce276  1  0.34918478  0.05163043  0.80978261  1.0
  Ce4+  Ce277  1  0.34918478  0.30163043  0.80978261  1.0
  Ce4+  Ce278  1  0.34918478  0.55163043  0.80978261  1.0
  Ce4+  Ce279  1  0.34918478  0.80163043  0.80978261  1.0
  Ce4+  Ce280  1  0.59918478  0.05163043  0.80978261  1.0
  Ce4+  Ce281  1  0.59918478  0.30163043  0.80978261  1.0
  Ce4+  Ce282  1  0.59918478  0.55163043  0.80978261  1.0
  Ce4+  Ce283  1  0.59918478  0.80163043  0.80978261  1.0
  Ce4+  Ce284  1  0.84918478  0.05163043  0.80978261  1.0
  Ce4+  Ce285  1  0.84918478  0.30163043  0.80978261  1.0
  Ce4+  Ce286  1  0.84918478  0.55163043  0.80978261  1.0
  Ce4+  Ce287  1  0.84918478  0.80163043  0.80978261  1.0
  Ce4+  Ce288  1  0.18342391  0.13315217  0.79891304  1.0
  Ce4+  Ce289  1  0.18342391  0.38315217  0.79891304  1.0
  Ce4+  Ce290  1  0.18342391  0.63315217  0.79891304  1.0
  Ce4+  Ce291  1  0.18342391  0.88315217  0.79891304  1.0
  Ce4+  Ce292  1  0.43342391  0.13315217  0.79891304  1.0
  Ce4+  Ce293  1  0.43342391  0.38315217  0.79891304  1.0
  Ce4+  Ce294  1  0.43342391  0.63315217  0.79891304  1.0
  Ce4+  Ce295  1  0.43342391  0.88315217  0.79891304  1.0
  Ce4+  Ce296  1  0.68342391  0.13315217  0.79891304  1.0
  Ce4+  Ce297  1  0.68342391  0.38315217  0.79891304  1.0
  Ce4+  Ce298  1  0.68342391  0.63315217  0.79891304  1.0
  Ce4+  Ce299  1  0.68342391  0.88315217  0.79891304  1.0
  Ce4+  Ce300  1  0.93342391  0.13315217  0.79891304  1.0
  Ce4+  Ce301  1  0.93342391  0.38315217  0.79891304  1.0
  Ce4+  Ce302  1  0.93342391  0.63315217  0.79891304  1.0
  Ce4+  Ce303  1  0.93342391  0.88315217  0.79891304  1.0
  Ce4+  Ce304  1  0.01766304  0.21467391  0.78804348  1.0
  Ce4+  Ce305  1  0.01766304  0.46467391  0.78804348  1.0
  Ce4+  Ce306  1  0.01766304  0.71467391  0.78804348  1.0
  Ce4+  Ce307  1  0.01766304  0.96467391  0.78804348  1.0
  Ce4+  Ce308  1  0.26766304  0.21467391  0.78804348  1.0
  Ce4+  Ce309  1  0.26766304  0.46467391  0.78804348  1.0
  Ce4+  Ce310  1  0.26766304  0.71467391  0.78804348  1.0
  Ce4+  Ce311  1  0.26766304  0.96467391  0.78804348  1.0
  Ce4+  Ce312  1  0.51766304  0.21467391  0.78804348  1.0
  Ce4+  Ce313  1  0.51766304  0.46467391  0.78804348  1.0
  Ce4+  Ce314  1  0.51766304  0.71467391  0.78804348  1.0
  Ce4+  Ce315  1  0.51766304  0.96467391  0.78804348  1.0
  Ce4+  Ce316  1  0.76766304  0.21467391  0.78804348  1.0
  Ce4+  Ce317  1  0.76766304  0.46467391  0.78804348  1.0
  Ce4+  Ce318  1  0.76766304  0.71467391  0.78804348  1.0
  Ce4+  Ce319  1  0.76766304  0.96467391  0.78804348  1.0
  Ce4+  Ce320  1  0.10190217  0.04619565  0.77717391  1.0
  Ce4+  Ce321  1  0.10190217  0.29619565  0.77717391  1.0
  Ce4+  Ce322  1  0.10190217  0.54619565  0.77717391  1.0
  Ce4+  Ce323  1  0.10190217  0.79619565  0.77717391  1.0
  Ce4+  Ce324  1  0.35190217  0.04619565  0.77717391  1.0
  Ce4+  Ce325  1  0.35190217  0.29619565  0.77717391  1.0
  Ce4+  Ce326  1  0.35190217  0.54619565  0.77717391  1.0
  Ce4+  Ce327  1  0.35190217  0.79619565  0.77717391  1.0
  Ce4+  Ce328  1  0.60190217  0.04619565  0.77717391  1.0
  Ce4+  Ce329  1  0.60190217  0.29619565  0.77717391  1.0
  Ce4+  Ce330  1  0.60190217  0.54619565  0.77717391  1.0
  Ce4+  Ce331  1  0.60190217  0.79619565  0.77717391  1.0
  Ce4+  Ce332  1  0.85190217  0.04619565  0.77717391  1.0
  Ce4+  Ce333  1  0.85190217  0.29619565  0.77717391  1.0
  Ce4+  Ce334  1  0.85190217  0.54619565  0.77717391  1.0
  Ce4+  Ce335  1  0.85190217  0.79619565  0.77717391  1.0
  Ce4+  Ce336  1  0.18614130  0.12771739  0.76630435  1.0
  Ce4+  Ce337  1  0.18614130  0.37771739  0.76630435  1.0
  Ce4+  Ce338  1  0.18614130  0.62771739  0.76630435  1.0
  Ce4+  Ce339  1  0.18614130  0.87771739  0.76630435  1.0
  Ce4+  Ce340  1  0.43614130  0.12771739  0.76630435  1.0
  Ce4+  Ce341  1  0.43614130  0.37771739  0.76630435  1.0
  Ce4+  Ce342  1  0.43614130  0.62771739  0.76630435  1.0
  Ce4+  Ce343  1  0.43614130  0.87771739  0.76630435  1.0
  Ce4+  Ce344  1  0.68614130  0.12771739  0.76630435  1.0
  Ce4+  Ce345  1  0.68614130  0.37771739  0.76630435  1.0
  Ce4+  Ce346  1  0.68614130  0.62771739  0.76630435  1.0
  Ce4+  Ce347  1  0.68614130  0.87771739  0.76630435  1.0
  Ce4+  Ce348  1  0.93614130  0.12771739  0.76630435  1.0
  Ce4+  Ce349  1  0.93614130  0.37771739  0.76630435  1.0
  Ce4+  Ce350  1  0.93614130  0.62771739  0.76630435  1.0
  Ce4+  Ce351  1  0.93614130  0.87771739  0.76630435  1.0
  Ce4+  Ce352  1  0.02038043  0.20923913  0.75543478  1.0
  Ce4+  Ce353  1  0.02038043  0.45923913  0.75543478  1.0
  Ce4+  Ce354  1  0.02038043  0.70923913  0.75543478  1.0
  Ce4+  Ce355  1  0.02038043  0.95923913  0.75543478  1.0
  Ce4+  Ce356  1  0.27038043  0.20923913  0.75543478  1.0
  Ce4+  Ce357  1  0.27038043  0.45923913  0.75543478  1.0
  Ce4+  Ce358  1  0.27038043  0.70923913  0.75543478  1.0
  Ce4+  Ce359  1  0.27038043  0.95923913  0.75543478  1.0
  Ce4+  Ce360  1  0.52038043  0.20923913  0.75543478  1.0
  Ce4+  Ce361  1  0.52038043  0.45923913  0.75543478  1.0
  Ce4+  Ce362  1  0.52038043  0.70923913  0.75543478  1.0
  Ce4+  Ce363  1  0.52038043  0.95923913  0.75543478  1.0
  Ce4+  Ce364  1  0.77038043  0.20923913  0.75543478  1.0
  Ce4+  Ce365  1  0.77038043  0.45923913  0.75543478  1.0
  Ce4+  Ce366  1  0.77038043  0.70923913  0.75543478  1.0
  Ce4+  Ce367  1  0.77038043  0.95923913  0.75543478  1.0
  Ce4+  Ce368  1  0.10461957  0.04076087  0.74456522  1.0
  Ce4+  Ce369  1  0.10461957  0.29076087  0.74456522  1.0
  Ce4+  Ce370  1  0.10461957  0.54076087  0.74456522  1.0
  Ce4+  Ce371  1  0.10461957  0.79076087  0.74456522  1.0
  Ce4+  Ce372  1  0.35461957  0.04076087  0.74456522  1.0
  Ce4+  Ce373  1  0.35461957  0.29076087  0.74456522  1.0
  Ce4+  Ce374  1  0.35461957  0.54076087  0.74456522  1.0
  Ce4+  Ce375  1  0.35461957  0.79076087  0.74456522  1.0
  Ce4+  Ce376  1  0.60461957  0.04076087  0.74456522  1.0
  Ce4+  Ce377  1  0.60461957  0.29076087  0.74456522  1.0
  Ce4+  Ce378  1  0.60461957  0.54076087  0.74456522  1.0
  Ce4+  Ce379  1  0.60461957  0.79076087  0.74456522  1.0
  Ce4+  Ce380  1  0.85461957  0.04076087  0.74456522  1.0
  Ce4+  Ce381  1  0.85461957  0.29076087  0.74456522  1.0
  Ce4+  Ce382  1  0.85461957  0.54076087  0.74456522  1.0
  Ce4+  Ce383  1  0.85461957  0.79076087  0.74456522  1.0
  Ce4+  Ce384  1  0.18885870  0.12228261  0.73369565  1.0
  Ce4+  Ce385  1  0.18885870  0.37228261  0.73369565  1.0
  Ce4+  Ce386  1  0.18885870  0.62228261  0.73369565  1.0
  Ce4+  Ce387  1  0.18885870  0.87228261  0.73369565  1.0
  Ce4+  Ce388  1  0.43885870  0.12228261  0.73369565  1.0
  Ce4+  Ce389  1  0.43885870  0.37228261  0.73369565  1.0
  Ce4+  Ce390  1  0.43885870  0.62228261  0.73369565  1.0
  Ce4+  Ce391  1  0.43885870  0.87228261  0.73369565  1.0
  Ce4+  Ce392  1  0.68885870  0.12228261  0.73369565  1.0
  Ce4+  Ce393  1  0.68885870  0.37228261  0.73369565  1.0
  Ce4+  Ce394  1  0.68885870  0.62228261  0.73369565  1.0
  Ce4+  Ce395  1  0.68885870  0.87228261  0.73369565  1.0
  Ce4+  Ce396  1  0.93885870  0.12228261  0.73369565  1.0
  Ce4+  Ce397  1  0.93885870  0.37228261  0.73369565  1.0
  Ce4+  Ce398  1  0.93885870  0.62228261  0.73369565  1.0
  Ce4+  Ce399  1  0.93885870  0.87228261  0.73369565  1.0
  Ce4+  Ce400  1  0.02309783  0.20380435  0.72282609  1.0
  Ce4+  Ce401  1  0.02309783  0.45380435  0.72282609  1.0
  Ce4+  Ce402  1  0.02309783  0.70380435  0.72282609  1.0
  Ce4+  Ce403  1  0.02309783  0.95380435  0.72282609  1.0
  Ce4+  Ce404  1  0.27309783  0.20380435  0.72282609  1.0
  Ce4+  Ce405  1  0.27309783  0.45380435  0.72282609  1.0
  Ce4+  Ce406  1  0.27309783  0.70380435  0.72282609  1.0
  Ce4+  Ce407  1  0.27309783  0.95380435  0.72282609  1.0
  Ce4+  Ce408  1  0.52309783  0.20380435  0.72282609  1.0
  Ce4+  Ce409  1  0.52309783  0.45380435  0.72282609  1.0
  Ce4+  Ce410  1  0.52309783  0.70380435  0.72282609  1.0
  Ce4+  Ce411  1  0.52309783  0.95380435  0.72282609  1.0
  Ce4+  Ce412  1  0.77309783  0.20380435  0.72282609  1.0
  Ce4+  Ce413  1  0.77309783  0.45380435  0.72282609  1.0
  Ce4+  Ce414  1  0.77309783  0.70380435  0.72282609  1.0
  Ce4+  Ce415  1  0.77309783  0.95380435  0.72282609  1.0
  Ce4+  Ce416  1  0.10733696  0.03532609  0.71195652  1.0
  Ce4+  Ce417  1  0.10733696  0.28532609  0.71195652  1.0
  Ce4+  Ce418  1  0.10733696  0.53532609  0.71195652  1.0
  Ce4+  Ce419  1  0.10733696  0.78532609  0.71195652  1.0
  Ce4+  Ce420  1  0.35733696  0.03532609  0.71195652  1.0
  Ce4+  Ce421  1  0.35733696  0.28532609  0.71195652  1.0
  Ce4+  Ce422  1  0.35733696  0.53532609  0.71195652  1.0
  Ce4+  Ce423  1  0.35733696  0.78532609  0.71195652  1.0
  Ce4+  Ce424  1  0.60733696  0.03532609  0.71195652  1.0
  Ce4+  Ce425  1  0.60733696  0.28532609  0.71195652  1.0
  Ce4+  Ce426  1  0.60733696  0.53532609  0.71195652  1.0
  Ce4+  Ce427  1  0.60733696  0.78532609  0.71195652  1.0
  Ce4+  Ce428  1  0.85733696  0.03532609  0.71195652  1.0
  Ce4+  Ce429  1  0.85733696  0.28532609  0.71195652  1.0
  Ce4+  Ce430  1  0.85733696  0.53532609  0.71195652  1.0
  Ce4+  Ce431  1  0.85733696  0.78532609  0.71195652  1.0
  Ce4+  Ce432  1  0.19157609  0.11684783  0.70108696  1.0
  Ce4+  Ce433  1  0.19157609  0.36684783  0.70108696  1.0
  Ce4+  Ce434  1  0.19157609  0.61684783  0.70108696  1.0
  Ce4+  Ce435  1  0.19157609  0.86684783  0.70108696  1.0
  Ce4+  Ce436  1  0.44157609  0.11684783  0.70108696  1.0
  Ce4+  Ce437  1  0.44157609  0.36684783  0.70108696  1.0
  Ce4+  Ce438  1  0.44157609  0.61684783  0.70108696  1.0
  Ce4+  Ce439  1  0.44157609  0.86684783  0.70108696  1.0
  Ce4+  Ce440  1  0.69157609  0.11684783  0.70108696  1.0
  Ce4+  Ce441  1  0.69157609  0.36684783  0.70108696  1.0
  Ce4+  Ce442  1  0.69157609  0.61684783  0.70108696  1.0
  Ce4+  Ce443  1  0.69157609  0.86684783  0.70108696  1.0
  Ce4+  Ce444  1  0.94157609  0.11684783  0.70108696  1.0
  Ce4+  Ce445  1  0.94157609  0.36684783  0.70108696  1.0
  Ce4+  Ce446  1  0.94157609  0.61684783  0.70108696  1.0
  Ce4+  Ce447  1  0.94157609  0.86684783  0.70108696  1.0
  O2-  O448  1  0.08355978  0.08288043  0.99728261  1.0
  O2-  O449  1  0.08355978  0.33288043  0.99728261  1.0
  O2-  O450  1  0.08355978  0.58288043  0.99728261  1.0
  O2-  O451  1  0.08355978  0.83288043  0.99728261  1.0
  O2-  O452  1  0.33355978  0.08288043  0.99728261  1.0
  O2-  O453  1  0.33355978  0.33288043  0.99728261  1.0
  O2-  O454  1  0.33355978  0.58288043  0.99728261  1.0
  O2-  O455  1  0.33355978  0.83288043  0.99728261  1.0
  O2-  O456  1  0.58355978  0.08288043  0.99728261  1.0
  O2-  O457  1  0.58355978  0.33288043  0.99728261  1.0
  O2-  O458  1  0.58355978  0.58288043  0.99728261  1.0
  O2-  O459  1  0.58355978  0.83288043  0.99728261  1.0
  O2-  O460  1  0.83355978  0.08288043  0.99728261  1.0
  O2-  O461  1  0.83355978  0.33288043  0.99728261  1.0
  O2-  O462  1  0.83355978  0.58288043  0.99728261  1.0
  O2-  O463  1  0.83355978  0.83288043  0.99728261  1.0
  O2-  O464  1  0.00067935  0.24864130  0.99184783  1.0
  O2-  O465  1  0.00067935  0.49864130  0.99184783  1.0
  O2-  O466  1  0.00067935  0.74864130  0.99184783  1.0
  O2-  O467  1  0.00067935  0.99864130  0.99184783  1.0
  O2-  O468  1  0.25067935  0.24864130  0.99184783  1.0
  O2-  O469  1  0.25067935  0.49864130  0.99184783  1.0
  O2-  O470  1  0.25067935  0.74864130  0.99184783  1.0
  O2-  O471  1  0.25067935  0.99864130  0.99184783  1.0
  O2-  O472  1  0.50067935  0.24864130  0.99184783  1.0
  O2-  O473  1  0.50067935  0.49864130  0.99184783  1.0
  O2-  O474  1  0.50067935  0.74864130  0.99184783  1.0
  O2-  O475  1  0.50067935  0.99864130  0.99184783  1.0
  O2-  O476  1  0.75067935  0.24864130  0.99184783  1.0
  O2-  O477  1  0.75067935  0.49864130  0.99184783  1.0
  O2-  O478  1  0.75067935  0.74864130  0.99184783  1.0
  O2-  O479  1  0.75067935  0.99864130  0.99184783  1.0
  O2-  O480  1  0.16779891  0.16440217  0.98641304  1.0
  O2-  O481  1  0.16779891  0.41440217  0.98641304  1.0
  O2-  O482  1  0.16779891  0.66440217  0.98641304  1.0
  O2-  O483  1  0.16779891  0.91440217  0.98641304  1.0
  O2-  O484  1  0.41779891  0.16440217  0.98641304  1.0
  O2-  O485  1  0.41779891  0.41440217  0.98641304  1.0
  O2-  O486  1  0.41779891  0.66440217  0.98641304  1.0
  O2-  O487  1  0.41779891  0.91440217  0.98641304  1.0
  O2-  O488  1  0.66779891  0.16440217  0.98641304  1.0
  O2-  O489  1  0.66779891  0.41440217  0.98641304  1.0
  O2-  O490  1  0.66779891  0.66440217  0.98641304  1.0
  O2-  O491  1  0.66779891  0.91440217  0.98641304  1.0
  O2-  O492  1  0.91779891  0.16440217  0.98641304  1.0
  O2-  O493  1  0.91779891  0.41440217  0.98641304  1.0
  O2-  O494  1  0.91779891  0.66440217  0.98641304  1.0
  O2-  O495  1  0.91779891  0.91440217  0.98641304  1.0
  O2-  O496  1  0.08491848  0.08016304  0.98097826  1.0
  O2-  O497  1  0.08491848  0.33016304  0.98097826  1.0
  O2-  O498  1  0.08491848  0.58016304  0.98097826  1.0
  O2-  O499  1  0.08491848  0.83016304  0.98097826  1.0
  O2-  O500  1  0.33491848  0.08016304  0.98097826  1.0
  O2-  O501  1  0.33491848  0.33016304  0.98097826  1.0
  O2-  O502  1  0.33491848  0.58016304  0.98097826  1.0
  O2-  O503  1  0.33491848  0.83016304  0.98097826  1.0
  O2-  O504  1  0.58491848  0.08016304  0.98097826  1.0
  O2-  O505  1  0.58491848  0.33016304  0.98097826  1.0
  O2-  O506  1  0.58491848  0.58016304  0.98097826  1.0
  O2-  O507  1  0.58491848  0.83016304  0.98097826  1.0
  O2-  O508  1  0.83491848  0.08016304  0.98097826  1.0
  O2-  O509  1  0.83491848  0.33016304  0.98097826  1.0
  O2-  O510  1  0.83491848  0.58016304  0.98097826  1.0
  O2-  O511  1  0.83491848  0.83016304  0.98097826  1.0
  O2-  O512  1  0.00203804  0.24592391  0.97554348  1.0
  O2-  O513  1  0.00203804  0.49592391  0.97554348  1.0
  O2-  O514  1  0.00203804  0.74592391  0.97554348  1.0
  O2-  O515  1  0.00203804  0.99592391  0.97554348  1.0
  O2-  O516  1  0.25203804  0.24592391  0.97554348  1.0
  O2-  O517  1  0.25203804  0.49592391  0.97554348  1.0
  O2-  O518  1  0.25203804  0.74592391  0.97554348  1.0
  O2-  O519  1  0.25203804  0.99592391  0.97554348  1.0
  O2-  O520  1  0.50203804  0.24592391  0.97554348  1.0
  O2-  O521  1  0.50203804  0.49592391  0.97554348  1.0
  O2-  O522  1  0.50203804  0.74592391  0.97554348  1.0
  O2-  O523  1  0.50203804  0.99592391  0.97554348  1.0
  O2-  O524  1  0.75203804  0.24592391  0.97554348  1.0
  O2-  O525  1  0.75203804  0.49592391  0.97554348  1.0
  O2-  O526  1  0.75203804  0.74592391  0.97554348  1.0
  O2-  O527  1  0.75203804  0.99592391  0.97554348  1.0
  O2-  O528  1  0.16915761  0.16168478  0.97010870  1.0
  O2-  O529  1  0.16915761  0.41168478  0.97010870  1.0
  O2-  O530  1  0.16915761  0.66168478  0.97010870  1.0
  O2-  O531  1  0.16915761  0.91168478  0.97010870  1.0
  O2-  O532  1  0.41915761  0.16168478  0.97010870  1.0
  O2-  O533  1  0.41915761  0.41168478  0.97010870  1.0
  O2-  O534  1  0.41915761  0.66168478  0.97010870  1.0
  O2-  O535  1  0.41915761  0.91168478  0.97010870  1.0
  O2-  O536  1  0.66915761  0.16168478  0.97010870  1.0
  O2-  O537  1  0.66915761  0.41168478  0.97010870  1.0
  O2-  O538  1  0.66915761  0.66168478  0.97010870  1.0
  O2-  O539  1  0.66915761  0.91168478  0.97010870  1.0
  O2-  O540  1  0.91915761  0.16168478  0.97010870  1.0
  O2-  O541  1  0.91915761  0.41168478  0.97010870  1.0
  O2-  O542  1  0.91915761  0.66168478  0.97010870  1.0
  O2-  O543  1  0.91915761  0.91168478  0.97010870  1.0
  O2-  O544  1  0.08627717  0.07744565  0.96467391  1.0
  O2-  O545  1  0.08627717  0.32744565  0.96467391  1.0
  O2-  O546  1  0.08627717  0.57744565  0.96467391  1.0
  O2-  O547  1  0.08627717  0.82744565  0.96467391  1.0
  O2-  O548  1  0.33627717  0.07744565  0.96467391  1.0
  O2-  O549  1  0.33627717  0.32744565  0.96467391  1.0
  O2-  O550  1  0.33627717  0.57744565  0.96467391  1.0
  O2-  O551  1  0.33627717  0.82744565  0.96467391  1.0
  O2-  O552  1  0.58627717  0.07744565  0.96467391  1.0
  O2-  O553  1  0.58627717  0.32744565  0.96467391  1.0
  O2-  O554  1  0.58627717  0.57744565  0.96467391  1.0
  O2-  O555  1  0.58627717  0.82744565  0.96467391  1.0
  O2-  O556  1  0.83627717  0.07744565  0.96467391  1.0
  O2-  O557  1  0.83627717  0.32744565  0.96467391  1.0
  O2-  O558  1  0.83627717  0.57744565  0.96467391  1.0
  O2-  O559  1  0.83627717  0.82744565  0.96467391  1.0
  O2-  O560  1  0.00339674  0.24320652  0.95923913  1.0
  O2-  O561  1  0.00339674  0.49320652  0.95923913  1.0
  O2-  O562  1  0.00339674  0.74320652  0.95923913  1.0
  O2-  O563  1  0.00339674  0.99320652  0.95923913  1.0
  O2-  O564  1  0.25339674  0.24320652  0.95923913  1.0
  O2-  O565  1  0.25339674  0.49320652  0.95923913  1.0
  O2-  O566  1  0.25339674  0.74320652  0.95923913  1.0
  O2-  O567  1  0.25339674  0.99320652  0.95923913  1.0
  O2-  O568  1  0.50339674  0.24320652  0.95923913  1.0
  O2-  O569  1  0.50339674  0.49320652  0.95923913  1.0
  O2-  O570  1  0.50339674  0.74320652  0.95923913  1.0
  O2-  O571  1  0.50339674  0.99320652  0.95923913  1.0
  O2-  O572  1  0.75339674  0.24320652  0.95923913  1.0
  O2-  O573  1  0.75339674  0.49320652  0.95923913  1.0
  O2-  O574  1  0.75339674  0.74320652  0.95923913  1.0
  O2-  O575  1  0.75339674  0.99320652  0.95923913  1.0
  O2-  O576  1  0.17051630  0.15896739  0.95380435  1.0
  O2-  O577  1  0.17051630  0.40896739  0.95380435  1.0
  O2-  O578  1  0.17051630  0.65896739  0.95380435  1.0
  O2-  O579  1  0.17051630  0.90896739  0.95380435  1.0
  O2-  O580  1  0.42051630  0.15896739  0.95380435  1.0
  O2-  O581  1  0.42051630  0.40896739  0.95380435  1.0
  O2-  O582  1  0.42051630  0.65896739  0.95380435  1.0
  O2-  O583  1  0.42051630  0.90896739  0.95380435  1.0
  O2-  O584  1  0.67051630  0.15896739  0.95380435  1.0
  O2-  O585  1  0.67051630  0.40896739  0.95380435  1.0
  O2-  O586  1  0.67051630  0.65896739  0.95380435  1.0
  O2-  O587  1  0.67051630  0.90896739  0.95380435  1.0
  O2-  O588  1  0.92051630  0.15896739  0.95380435  1.0
  O2-  O589  1  0.92051630  0.40896739  0.95380435  1.0
  O2-  O590  1  0.92051630  0.65896739  0.95380435  1.0
  O2-  O591  1  0.92051630  0.90896739  0.95380435  1.0
  O2-  O592  1  0.08763587  0.07472826  0.94836957  1.0
  O2-  O593  1  0.08763587  0.32472826  0.94836957  1.0
  O2-  O594  1  0.08763587  0.57472826  0.94836957  1.0
  O2-  O595  1  0.08763587  0.82472826  0.94836957  1.0
  O2-  O596  1  0.33763587  0.07472826  0.94836957  1.0
  O2-  O597  1  0.33763587  0.32472826  0.94836957  1.0
  O2-  O598  1  0.33763587  0.57472826  0.94836957  1.0
  O2-  O599  1  0.33763587  0.82472826  0.94836957  1.0
  O2-  O600  1  0.58763587  0.07472826  0.94836957  1.0
  O2-  O601  1  0.58763587  0.32472826  0.94836957  1.0
  O2-  O602  1  0.58763587  0.57472826  0.94836957  1.0
  O2-  O603  1  0.58763587  0.82472826  0.94836957  1.0
  O2-  O604  1  0.83763587  0.07472826  0.94836957  1.0
  O2-  O605  1  0.83763587  0.32472826  0.94836957  1.0
  O2-  O606  1  0.83763587  0.57472826  0.94836957  1.0
  O2-  O607  1  0.83763587  0.82472826  0.94836957  1.0
  O2-  O608  1  0.00475543  0.24048913  0.94293478  1.0
  O2-  O609  1  0.00475543  0.49048913  0.94293478  1.0
  O2-  O610  1  0.00475543  0.74048913  0.94293478  1.0
  O2-  O611  1  0.00475543  0.99048913  0.94293478  1.0
  O2-  O612  1  0.25475543  0.24048913  0.94293478  1.0
  O2-  O613  1  0.25475543  0.49048913  0.94293478  1.0
  O2-  O614  1  0.25475543  0.74048913  0.94293478  1.0
  O2-  O615  1  0.25475543  0.99048913  0.94293478  1.0
  O2-  O616  1  0.50475543  0.24048913  0.94293478  1.0
  O2-  O617  1  0.50475543  0.49048913  0.94293478  1.0
  O2-  O618  1  0.50475543  0.74048913  0.94293478  1.0
  O2-  O619  1  0.50475543  0.99048913  0.94293478  1.0
  O2-  O620  1  0.75475543  0.24048913  0.94293478  1.0
  O2-  O621  1  0.75475543  0.49048913  0.94293478  1.0
  O2-  O622  1  0.75475543  0.74048913  0.94293478  1.0
  O2-  O623  1  0.75475543  0.99048913  0.94293478  1.0
  O2-  O624  1  0.17187500  0.15625000  0.93750000  1.0
  O2-  O625  1  0.17187500  0.40625000  0.93750000  1.0
  O2-  O626  1  0.17187500  0.65625000  0.93750000  1.0
  O2-  O627  1  0.17187500  0.90625000  0.93750000  1.0
  O2-  O628  1  0.42187500  0.15625000  0.93750000  1.0
  O2-  O629  1  0.42187500  0.40625000  0.93750000  1.0
  O2-  O630  1  0.42187500  0.65625000  0.93750000  1.0
  O2-  O631  1  0.42187500  0.90625000  0.93750000  1.0
  O2-  O632  1  0.67187500  0.15625000  0.93750000  1.0
  O2-  O633  1  0.67187500  0.40625000  0.93750000  1.0
  O2-  O634  1  0.67187500  0.65625000  0.93750000  1.0
  O2-  O635  1  0.67187500  0.90625000  0.93750000  1.0
  O2-  O636  1  0.92187500  0.15625000  0.93750000  1.0
  O2-  O637  1  0.92187500  0.40625000  0.93750000  1.0
  O2-  O638  1  0.92187500  0.65625000  0.93750000  1.0
  O2-  O639  1  0.92187500  0.90625000  0.93750000  1.0
  O2-  O640  1  0.08899457  0.07201087  0.93206522  1.0
  O2-  O641  1  0.08899457  0.32201087  0.93206522  1.0
  O2-  O642  1  0.08899457  0.57201087  0.93206522  1.0
  O2-  O643  1  0.08899457  0.82201087  0.93206522  1.0
  O2-  O644  1  0.33899457  0.07201087  0.93206522  1.0
  O2-  O645  1  0.33899457  0.32201087  0.93206522  1.0
  O2-  O646  1  0.33899457  0.57201087  0.93206522  1.0
  O2-  O647  1  0.33899457  0.82201087  0.93206522  1.0
  O2-  O648  1  0.58899457  0.07201087  0.93206522  1.0
  O2-  O649  1  0.58899457  0.32201087  0.93206522  1.0
  O2-  O650  1  0.58899457  0.57201087  0.93206522  1.0
  O2-  O651  1  0.58899457  0.82201087  0.93206522  1.0
  O2-  O652  1  0.83899457  0.07201087  0.93206522  1.0
  O2-  O653  1  0.83899457  0.32201087  0.93206522  1.0
  O2-  O654  1  0.83899457  0.57201087  0.93206522  1.0
  O2-  O655  1  0.83899457  0.82201087  0.93206522  1.0
  O2-  O656  1  0.00611413  0.23777174  0.92663043  1.0
  O2-  O657  1  0.00611413  0.48777174  0.92663043  1.0
  O2-  O658  1  0.00611413  0.73777174  0.92663043  1.0
  O2-  O659  1  0.00611413  0.98777174  0.92663043  1.0
  O2-  O660  1  0.25611413  0.23777174  0.92663043  1.0
  O2-  O661  1  0.25611413  0.48777174  0.92663043  1.0
  O2-  O662  1  0.25611413  0.73777174  0.92663043  1.0
  O2-  O663  1  0.25611413  0.98777174  0.92663043  1.0
  O2-  O664  1  0.50611413  0.23777174  0.92663043  1.0
  O2-  O665  1  0.50611413  0.48777174  0.92663043  1.0
  O2-  O666  1  0.50611413  0.73777174  0.92663043  1.0
  O2-  O667  1  0.50611413  0.98777174  0.92663043  1.0
  O2-  O668  1  0.75611413  0.23777174  0.92663043  1.0
  O2-  O669  1  0.75611413  0.48777174  0.92663043  1.0
  O2-  O670  1  0.75611413  0.73777174  0.92663043  1.0
  O2-  O671  1  0.75611413  0.98777174  0.92663043  1.0
  O2-  O672  1  0.17323370  0.15353261  0.92119565  1.0
  O2-  O673  1  0.17323370  0.40353261  0.92119565  1.0
  O2-  O674  1  0.17323370  0.65353261  0.92119565  1.0
  O2-  O675  1  0.17323370  0.90353261  0.92119565  1.0
  O2-  O676  1  0.42323370  0.15353261  0.92119565  1.0
  O2-  O677  1  0.42323370  0.40353261  0.92119565  1.0
  O2-  O678  1  0.42323370  0.65353261  0.92119565  1.0
  O2-  O679  1  0.42323370  0.90353261  0.92119565  1.0
  O2-  O680  1  0.67323370  0.15353261  0.92119565  1.0
  O2-  O681  1  0.67323370  0.40353261  0.92119565  1.0
  O2-  O682  1  0.67323370  0.65353261  0.92119565  1.0
  O2-  O683  1  0.67323370  0.90353261  0.92119565  1.0
  O2-  O684  1  0.92323370  0.15353261  0.92119565  1.0
  O2-  O685  1  0.92323370  0.40353261  0.92119565  1.0
  O2-  O686  1  0.92323370  0.65353261  0.92119565  1.0
  O2-  O687  1  0.92323370  0.90353261  0.92119565  1.0
  O2-  O688  1  0.09035326  0.06929348  0.91576087  1.0
  O2-  O689  1  0.09035326  0.31929348  0.91576087  1.0
  O2-  O690  1  0.09035326  0.56929348  0.91576087  1.0
  O2-  O691  1  0.09035326  0.81929348  0.91576087  1.0
  O2-  O692  1  0.34035326  0.06929348  0.91576087  1.0
  O2-  O693  1  0.34035326  0.31929348  0.91576087  1.0
  O2-  O694  1  0.34035326  0.56929348  0.91576087  1.0
  O2-  O695  1  0.34035326  0.81929348  0.91576087  1.0
  O2-  O696  1  0.59035326  0.06929348  0.91576087  1.0
  O2-  O697  1  0.59035326  0.31929348  0.91576087  1.0
  O2-  O698  1  0.59035326  0.56929348  0.91576087  1.0
  O2-  O699  1  0.59035326  0.81929348  0.91576087  1.0
  O2-  O700  1  0.84035326  0.06929348  0.91576087  1.0
  O2-  O701  1  0.84035326  0.31929348  0.91576087  1.0
  O2-  O702  1  0.84035326  0.56929348  0.91576087  1.0
  O2-  O703  1  0.84035326  0.81929348  0.91576087  1.0
  O2-  O704  1  0.00747283  0.23505435  0.91032609  1.0
  O2-  O705  1  0.00747283  0.48505435  0.91032609  1.0
  O2-  O706  1  0.00747283  0.73505435  0.91032609  1.0
  O2-  O707  1  0.00747283  0.98505435  0.91032609  1.0
  O2-  O708  1  0.25747283  0.23505435  0.91032609  1.0
  O2-  O709  1  0.25747283  0.48505435  0.91032609  1.0
  O2-  O710  1  0.25747283  0.73505435  0.91032609  1.0
  O2-  O711  1  0.25747283  0.98505435  0.91032609  1.0
  O2-  O712  1  0.50747283  0.23505435  0.91032609  1.0
  O2-  O713  1  0.50747283  0.48505435  0.91032609  1.0
  O2-  O714  1  0.50747283  0.73505435  0.91032609  1.0
  O2-  O715  1  0.50747283  0.98505435  0.91032609  1.0
  O2-  O716  1  0.75747283  0.23505435  0.91032609  1.0
  O2-  O717  1  0.75747283  0.48505435  0.91032609  1.0
  O2-  O718  1  0.75747283  0.73505435  0.91032609  1.0
  O2-  O719  1  0.75747283  0.98505435  0.91032609  1.0
  O2-  O720  1  0.17459239  0.15081522  0.90489130  1.0
  O2-  O721  1  0.17459239  0.40081522  0.90489130  1.0
  O2-  O722  1  0.17459239  0.65081522  0.90489130  1.0
  O2-  O723  1  0.17459239  0.90081522  0.90489130  1.0
  O2-  O724  1  0.42459239  0.15081522  0.90489130  1.0
  O2-  O725  1  0.42459239  0.40081522  0.90489130  1.0
  O2-  O726  1  0.42459239  0.65081522  0.90489130  1.0
  O2-  O727  1  0.42459239  0.90081522  0.90489130  1.0
  O2-  O728  1  0.67459239  0.15081522  0.90489130  1.0
  O2-  O729  1  0.67459239  0.40081522  0.90489130  1.0
  O2-  O730  1  0.67459239  0.65081522  0.90489130  1.0
  O2-  O731  1  0.67459239  0.90081522  0.90489130  1.0
  O2-  O732  1  0.92459239  0.15081522  0.90489130  1.0
  O2-  O733  1  0.92459239  0.40081522  0.90489130  1.0
  O2-  O734  1  0.92459239  0.65081522  0.90489130  1.0
  O2-  O735  1  0.92459239  0.90081522  0.90489130  1.0
  O2-  O736  1  0.09171196  0.06657609  0.89945652  1.0
  O2-  O737  1  0.09171196  0.31657609  0.89945652  1.0
  O2-  O738  1  0.09171196  0.56657609  0.89945652  1.0
  O2-  O739  1  0.09171196  0.81657609  0.89945652  1.0
  O2-  O740  1  0.34171196  0.06657609  0.89945652  1.0
  O2-  O741  1  0.34171196  0.31657609  0.89945652  1.0
  O2-  O742  1  0.34171196  0.56657609  0.89945652  1.0
  O2-  O743  1  0.34171196  0.81657609  0.89945652  1.0
  O2-  O744  1  0.59171196  0.06657609  0.89945652  1.0
  O2-  O745  1  0.59171196  0.31657609  0.89945652  1.0
  O2-  O746  1  0.59171196  0.56657609  0.89945652  1.0
  O2-  O747  1  0.59171196  0.81657609  0.89945652  1.0
  O2-  O748  1  0.84171196  0.06657609  0.89945652  1.0
  O2-  O749  1  0.84171196  0.31657609  0.89945652  1.0
  O2-  O750  1  0.84171196  0.56657609  0.89945652  1.0
  O2-  O751  1  0.84171196  0.81657609  0.89945652  1.0
  O2-  O752  1  0.00883152  0.23233696  0.89402174  1.0
  O2-  O753  1  0.00883152  0.48233696  0.89402174  1.0
  O2-  O754  1  0.00883152  0.73233696  0.89402174  1.0
  O2-  O755  1  0.00883152  0.98233696  0.89402174  1.0
  O2-  O756  1  0.25883152  0.23233696  0.89402174  1.0
  O2-  O757  1  0.25883152  0.48233696  0.89402174  1.0
  O2-  O758  1  0.25883152  0.73233696  0.89402174  1.0
  O2-  O759  1  0.25883152  0.98233696  0.89402174  1.0
  O2-  O760  1  0.50883152  0.23233696  0.89402174  1.0
  O2-  O761  1  0.50883152  0.48233696  0.89402174  1.0
  O2-  O762  1  0.50883152  0.73233696  0.89402174  1.0
  O2-  O763  1  0.50883152  0.98233696  0.89402174  1.0
  O2-  O764  1  0.75883152  0.23233696  0.89402174  1.0
  O2-  O765  1  0.75883152  0.48233696  0.89402174  1.0
  O2-  O766  1  0.75883152  0.73233696  0.89402174  1.0
  O2-  O767  1  0.75883152  0.98233696  0.89402174  1.0
  O2-  O768  1  0.17595109  0.14809783  0.88858696  1.0
  O2-  O769  1  0.17595109  0.39809783  0.88858696  1.0
  O2-  O770  1  0.17595109  0.64809783  0.88858696  1.0
  O2-  O771  1  0.17595109  0.89809783  0.88858696  1.0
  O2-  O772  1  0.42595109  0.14809783  0.88858696  1.0
  O2-  O773  1  0.42595109  0.39809783  0.88858696  1.0
  O2-  O774  1  0.42595109  0.64809783  0.88858696  1.0
  O2-  O775  1  0.42595109  0.89809783  0.88858696  1.0
  O2-  O776  1  0.67595109  0.14809783  0.88858696  1.0
  O2-  O777  1  0.67595109  0.39809783  0.88858696  1.0
  O2-  O778  1  0.67595109  0.64809783  0.88858696  1.0
  O2-  O779  1  0.67595109  0.89809783  0.88858696  1.0
  O2-  O780  1  0.92595109  0.14809783  0.88858696  1.0
  O2-  O781  1  0.92595109  0.39809783  0.88858696  1.0
  O2-  O782  1  0.92595109  0.64809783  0.88858696  1.0
  O2-  O783  1  0.92595109  0.89809783  0.88858696  1.0
  O2-  O784  1  0.09307065  0.06385870  0.88315217  1.0
  O2-  O785  1  0.09307065  0.31385870  0.88315217  1.0
  O2-  O786  1  0.09307065  0.56385870  0.88315217  1.0
  O2-  O787  1  0.09307065  0.81385870  0.88315217  1.0
  O2-  O788  1  0.34307065  0.06385870  0.88315217  1.0
  O2-  O789  1  0.34307065  0.31385870  0.88315217  1.0
  O2-  O790  1  0.34307065  0.56385870  0.88315217  1.0
  O2-  O791  1  0.34307065  0.81385870  0.88315217  1.0
  O2-  O792  1  0.59307065  0.06385870  0.88315217  1.0
  O2-  O793  1  0.59307065  0.31385870  0.88315217  1.0
  O2-  O794  1  0.59307065  0.56385870  0.88315217  1.0
  O2-  O795  1  0.59307065  0.81385870  0.88315217  1.0
  O2-  O796  1  0.84307065  0.06385870  0.88315217  1.0
  O2-  O797  1  0.84307065  0.31385870  0.88315217  1.0
  O2-  O798  1  0.84307065  0.56385870  0.88315217  1.0
  O2-  O799  1  0.84307065  0.81385870  0.88315217  1.0
  O2-  O800  1  0.01019022  0.22961957  0.87771739  1.0
  O2-  O801  1  0.01019022  0.47961957  0.87771739  1.0
  O2-  O802  1  0.01019022  0.72961957  0.87771739  1.0
  O2-  O803  1  0.01019022  0.97961957  0.87771739  1.0
  O2-  O804  1  0.26019022  0.22961957  0.87771739  1.0
  O2-  O805  1  0.26019022  0.47961957  0.87771739  1.0
  O2-  O806  1  0.26019022  0.72961957  0.87771739  1.0
  O2-  O807  1  0.26019022  0.97961957  0.87771739  1.0
  O2-  O808  1  0.51019022  0.22961957  0.87771739  1.0
  O2-  O809  1  0.51019022  0.47961957  0.87771739  1.0
  O2-  O810  1  0.51019022  0.72961957  0.87771739  1.0
  O2-  O811  1  0.51019022  0.97961957  0.87771739  1.0
  O2-  O812  1  0.76019022  0.22961957  0.87771739  1.0
  O2-  O813  1  0.76019022  0.47961957  0.87771739  1.0
  O2-  O814  1  0.76019022  0.72961957  0.87771739  1.0
  O2-  O815  1  0.76019022  0.97961957  0.87771739  1.0
  O2-  O816  1  0.17730978  0.14538043  0.87228261  1.0
  O2-  O817  1  0.17730978  0.39538043  0.87228261  1.0
  O2-  O818  1  0.17730978  0.64538043  0.87228261  1.0
  O2-  O819  1  0.17730978  0.89538043  0.87228261  1.0
  O2-  O820  1  0.42730978  0.14538043  0.87228261  1.0
  O2-  O821  1  0.42730978  0.39538043  0.87228261  1.0
  O2-  O822  1  0.42730978  0.64538043  0.87228261  1.0
  O2-  O823  1  0.42730978  0.89538043  0.87228261  1.0
  O2-  O824  1  0.67730978  0.14538043  0.87228261  1.0
  O2-  O825  1  0.67730978  0.39538043  0.87228261  1.0
  O2-  O826  1  0.67730978  0.64538043  0.87228261  1.0
  O2-  O827  1  0.67730978  0.89538043  0.87228261  1.0
  O2-  O828  1  0.92730978  0.14538043  0.87228261  1.0
  O2-  O829  1  0.92730978  0.39538043  0.87228261  1.0
  O2-  O830  1  0.92730978  0.64538043  0.87228261  1.0
  O2-  O831  1  0.92730978  0.89538043  0.87228261  1.0
  O2-  O832  1  0.09442935  0.06114130  0.86684783  1.0
  O2-  O833  1  0.09442935  0.31114130  0.86684783  1.0
  O2-  O834  1  0.09442935  0.56114130  0.86684783  1.0
  O2-  O835  1  0.09442935  0.81114130  0.86684783  1.0
  O2-  O836  1  0.34442935  0.06114130  0.86684783  1.0
  O2-  O837  1  0.34442935  0.31114130  0.86684783  1.0
  O2-  O838  1  0.34442935  0.56114130  0.86684783  1.0
  O2-  O839  1  0.34442935  0.81114130  0.86684783  1.0
  O2-  O840  1  0.59442935  0.06114130  0.86684783  1.0
  O2-  O841  1  0.59442935  0.31114130  0.86684783  1.0
  O2-  O842  1  0.59442935  0.56114130  0.86684783  1.0
  O2-  O843  1  0.59442935  0.81114130  0.86684783  1.0
  O2-  O844  1  0.84442935  0.06114130  0.86684783  1.0
  O2-  O845  1  0.84442935  0.31114130  0.86684783  1.0
  O2-  O846  1  0.84442935  0.56114130  0.86684783  1.0
  O2-  O847  1  0.84442935  0.81114130  0.86684783  1.0
  O2-  O848  1  0.01154891  0.22690217  0.86141304  1.0
  O2-  O849  1  0.01154891  0.47690217  0.86141304  1.0
  O2-  O850  1  0.01154891  0.72690217  0.86141304  1.0
  O2-  O851  1  0.01154891  0.97690217  0.86141304  1.0
  O2-  O852  1  0.26154891  0.22690217  0.86141304  1.0
  O2-  O853  1  0.26154891  0.47690217  0.86141304  1.0
  O2-  O854  1  0.26154891  0.72690217  0.86141304  1.0
  O2-  O855  1  0.26154891  0.97690217  0.86141304  1.0
  O2-  O856  1  0.51154891  0.22690217  0.86141304  1.0
  O2-  O857  1  0.51154891  0.47690217  0.86141304  1.0
  O2-  O858  1  0.51154891  0.72690217  0.86141304  1.0
  O2-  O859  1  0.51154891  0.97690217  0.86141304  1.0
  O2-  O860  1  0.76154891  0.22690217  0.86141304  1.0
  O2-  O861  1  0.76154891  0.47690217  0.86141304  1.0
  O2-  O862  1  0.76154891  0.72690217  0.86141304  1.0
  O2-  O863  1  0.76154891  0.97690217  0.86141304  1.0
  O2-  O864  1  0.17866848  0.14266304  0.85597826  1.0
  O2-  O865  1  0.17866848  0.39266304  0.85597826  1.0
  O2-  O866  1  0.17866848  0.64266304  0.85597826  1.0
  O2-  O867  1  0.17866848  0.89266304  0.85597826  1.0
  O2-  O868  1  0.42866848  0.14266304  0.85597826  1.0
  O2-  O869  1  0.42866848  0.39266304  0.85597826  1.0
  O2-  O870  1  0.42866848  0.64266304  0.85597826  1.0
  O2-  O871  1  0.42866848  0.89266304  0.85597826  1.0
  O2-  O872  1  0.67866848  0.14266304  0.85597826  1.0
  O2-  O873  1  0.67866848  0.39266304  0.85597826  1.0
  O2-  O874  1  0.67866848  0.64266304  0.85597826  1.0
  O2-  O875  1  0.67866848  0.89266304  0.85597826  1.0
  O2-  O876  1  0.92866848  0.14266304  0.85597826  1.0
  O2-  O877  1  0.92866848  0.39266304  0.85597826  1.0
  O2-  O878  1  0.92866848  0.64266304  0.85597826  1.0
  O2-  O879  1  0.92866848  0.89266304  0.85597826  1.0
  O2-  O880  1  0.09578804  0.05842391  0.85054348  1.0
  O2-  O881  1  0.09578804  0.30842391  0.85054348  1.0
  O2-  O882  1  0.09578804  0.55842391  0.85054348  1.0
  O2-  O883  1  0.09578804  0.80842391  0.85054348  1.0
  O2-  O884  1  0.34578804  0.05842391  0.85054348  1.0
  O2-  O885  1  0.34578804  0.30842391  0.85054348  1.0
  O2-  O886  1  0.34578804  0.55842391  0.85054348  1.0
  O2-  O887  1  0.34578804  0.80842391  0.85054348  1.0
  O2-  O888  1  0.59578804  0.05842391  0.85054348  1.0
  O2-  O889  1  0.59578804  0.30842391  0.85054348  1.0
  O2-  O890  1  0.59578804  0.55842391  0.85054348  1.0
  O2-  O891  1  0.59578804  0.80842391  0.85054348  1.0
  O2-  O892  1  0.84578804  0.05842391  0.85054348  1.0
  O2-  O893  1  0.84578804  0.30842391  0.85054348  1.0
  O2-  O894  1  0.84578804  0.55842391  0.85054348  1.0
  O2-  O895  1  0.84578804  0.80842391  0.85054348  1.0
  O2-  O896  1  0.01290761  0.22418478  0.84510870  1.0
  O2-  O897  1  0.01290761  0.47418478  0.84510870  1.0
  O2-  O898  1  0.01290761  0.72418478  0.84510870  1.0
  O2-  O899  1  0.01290761  0.97418478  0.84510870  1.0
  O2-  O900  1  0.26290761  0.22418478  0.84510870  1.0
  O2-  O901  1  0.26290761  0.47418478  0.84510870  1.0
  O2-  O902  1  0.26290761  0.72418478  0.84510870  1.0
  O2-  O903  1  0.26290761  0.97418478  0.84510870  1.0
  O2-  O904  1  0.51290761  0.22418478  0.84510870  1.0
  O2-  O905  1  0.51290761  0.47418478  0.84510870  1.0
  O2-  O906  1  0.51290761  0.72418478  0.84510870  1.0
  O2-  O907  1  0.51290761  0.97418478  0.84510870  1.0
  O2-  O908  1  0.76290761  0.22418478  0.84510870  1.0
  O2-  O909  1  0.76290761  0.47418478  0.84510870  1.0
  O2-  O910  1  0.76290761  0.72418478  0.84510870  1.0
  O2-  O911  1  0.76290761  0.97418478  0.84510870  1.0
  O2-  O912  1  0.18002717  0.13994565  0.83967391  1.0
  O2-  O913  1  0.18002717  0.38994565  0.83967391  1.0
  O2-  O914  1  0.18002717  0.63994565  0.83967391  1.0
  O2-  O915  1  0.18002717  0.88994565  0.83967391  1.0
  O2-  O916  1  0.43002717  0.13994565  0.83967391  1.0
  O2-  O917  1  0.43002717  0.38994565  0.83967391  1.0
  O2-  O918  1  0.43002717  0.63994565  0.83967391  1.0
  O2-  O919  1  0.43002717  0.88994565  0.83967391  1.0
  O2-  O920  1  0.68002717  0.13994565  0.83967391  1.0
  O2-  O921  1  0.68002717  0.38994565  0.83967391  1.0
  O2-  O922  1  0.68002717  0.63994565  0.83967391  1.0
  O2-  O923  1  0.68002717  0.88994565  0.83967391  1.0
  O2-  O924  1  0.93002717  0.13994565  0.83967391  1.0
  O2-  O925  1  0.93002717  0.38994565  0.83967391  1.0
  O2-  O926  1  0.93002717  0.63994565  0.83967391  1.0
  O2-  O927  1  0.93002717  0.88994565  0.83967391  1.0
  O2-  O928  1  0.09714674  0.05570652  0.83423913  1.0
  O2-  O929  1  0.09714674  0.30570652  0.83423913  1.0
  O2-  O930  1  0.09714674  0.55570652  0.83423913  1.0
  O2-  O931  1  0.09714674  0.80570652  0.83423913  1.0
  O2-  O932  1  0.34714674  0.05570652  0.83423913  1.0
  O2-  O933  1  0.34714674  0.30570652  0.83423913  1.0
  O2-  O934  1  0.34714674  0.55570652  0.83423913  1.0
  O2-  O935  1  0.34714674  0.80570652  0.83423913  1.0
  O2-  O936  1  0.59714674  0.05570652  0.83423913  1.0
  O2-  O937  1  0.59714674  0.30570652  0.83423913  1.0
  O2-  O938  1  0.59714674  0.55570652  0.83423913  1.0
  O2-  O939  1  0.59714674  0.80570652  0.83423913  1.0
  O2-  O940  1  0.84714674  0.05570652  0.83423913  1.0
  O2-  O941  1  0.84714674  0.30570652  0.83423913  1.0
  O2-  O942  1  0.84714674  0.55570652  0.83423913  1.0
  O2-  O943  1  0.84714674  0.80570652  0.83423913  1.0
  O2-  O944  1  0.01426630  0.22146739  0.82880435  1.0
  O2-  O945  1  0.01426630  0.47146739  0.82880435  1.0
  O2-  O946  1  0.01426630  0.72146739  0.82880435  1.0
  O2-  O947  1  0.01426630  0.97146739  0.82880435  1.0
  O2-  O948  1  0.26426630  0.22146739  0.82880435  1.0
  O2-  O949  1  0.26426630  0.47146739  0.82880435  1.0
  O2-  O950  1  0.26426630  0.72146739  0.82880435  1.0
  O2-  O951  1  0.26426630  0.97146739  0.82880435  1.0
  O2-  O952  1  0.51426630  0.22146739  0.82880435  1.0
  O2-  O953  1  0.51426630  0.47146739  0.82880435  1.0
  O2-  O954  1  0.51426630  0.72146739  0.82880435  1.0
  O2-  O955  1  0.51426630  0.97146739  0.82880435  1.0
  O2-  O956  1  0.76426630  0.22146739  0.82880435  1.0
  O2-  O957  1  0.76426630  0.47146739  0.82880435  1.0
  O2-  O958  1  0.76426630  0.72146739  0.82880435  1.0
  O2-  O959  1  0.76426630  0.97146739  0.82880435  1.0
  O2-  O960  1  0.18138587  0.13722826  0.82336957  1.0
  O2-  O961  1  0.18138587  0.38722826  0.82336957  1.0
  O2-  O962  1  0.18138587  0.63722826  0.82336957  1.0
  O2-  O963  1  0.18138587  0.88722826  0.82336957  1.0
  O2-  O964  1  0.43138587  0.13722826  0.82336957  1.0
  O2-  O965  1  0.43138587  0.38722826  0.82336957  1.0
  O2-  O966  1  0.43138587  0.63722826  0.82336957  1.0
  O2-  O967  1  0.43138587  0.88722826  0.82336957  1.0
  O2-  O968  1  0.68138587  0.13722826  0.82336957  1.0
  O2-  O969  1  0.68138587  0.38722826  0.82336957  1.0
  O2-  O970  1  0.68138587  0.63722826  0.82336957  1.0
  O2-  O971  1  0.68138587  0.88722826  0.82336957  1.0
  O2-  O972  1  0.93138587  0.13722826  0.82336957  1.0
  O2-  O973  1  0.93138587  0.38722826  0.82336957  1.0
  O2-  O974  1  0.93138587  0.63722826  0.82336957  1.0
  O2-  O975  1  0.93138587  0.88722826  0.82336957  1.0
  O2-  O976  1  0.09850543  0.05298913  0.81793478  1.0
  O2-  O977  1  0.09850543  0.30298913  0.81793478  1.0
  O2-  O978  1  0.09850543  0.55298913  0.81793478  1.0
  O2-  O979  1  0.09850543  0.80298913  0.81793478  1.0
  O2-  O980  1  0.34850543  0.05298913  0.81793478  1.0
  O2-  O981  1  0.34850543  0.30298913  0.81793478  1.0
  O2-  O982  1  0.34850543  0.55298913  0.81793478  1.0
  O2-  O983  1  0.34850543  0.80298913  0.81793478  1.0
  O2-  O984  1  0.59850543  0.05298913  0.81793478  1.0
  O2-  O985  1  0.59850543  0.30298913  0.81793478  1.0
  O2-  O986  1  0.59850543  0.55298913  0.81793478  1.0
  O2-  O987  1  0.59850543  0.80298913  0.81793478  1.0
  O2-  O988  1  0.84850543  0.05298913  0.81793478  1.0
  O2-  O989  1  0.84850543  0.30298913  0.81793478  1.0
  O2-  O990  1  0.84850543  0.55298913  0.81793478  1.0
  O2-  O991  1  0.84850543  0.80298913  0.81793478  1.0
  O2-  O992  1  0.01562500  0.21875000  0.81250000  1.0
  O2-  O993  1  0.01562500  0.46875000  0.81250000  1.0
  O2-  O994  1  0.01562500  0.71875000  0.81250000  1.0
  O2-  O995  1  0.01562500  0.96875000  0.81250000  1.0
  O2-  O996  1  0.26562500  0.21875000  0.81250000  1.0
  O2-  O997  1  0.26562500  0.46875000  0.81250000  1.0
  O2-  O998  1  0.26562500  0.71875000  0.81250000  1.0
  O2-  O999  1  0.26562500  0.96875000  0.81250000  1.0
  O2-  O1000  1  0.51562500  0.21875000  0.81250000  1.0
  O2-  O1001  1  0.51562500  0.46875000  0.81250000  1.0
  O2-  O1002  1  0.51562500  0.71875000  0.81250000  1.0
  O2-  O1003  1  0.51562500  0.96875000  0.81250000  1.0
  O2-  O1004  1  0.76562500  0.21875000  0.81250000  1.0
  O2-  O1005  1  0.76562500  0.46875000  0.81250000  1.0
  O2-  O1006  1  0.76562500  0.71875000  0.81250000  1.0
  O2-  O1007  1  0.76562500  0.96875000  0.81250000  1.0
  O2-  O1008  1  0.18274457  0.13451087  0.80706522  1.0
  O2-  O1009  1  0.18274457  0.38451087  0.80706522  1.0
  O2-  O1010  1  0.18274457  0.63451087  0.80706522  1.0
  O2-  O1011  1  0.18274457  0.88451087  0.80706522  1.0
  O2-  O1012  1  0.43274457  0.13451087  0.80706522  1.0
  O2-  O1013  1  0.43274457  0.38451087  0.80706522  1.0
  O2-  O1014  1  0.43274457  0.63451087  0.80706522  1.0
  O2-  O1015  1  0.43274457  0.88451087  0.80706522  1.0
  O2-  O1016  1  0.68274457  0.13451087  0.80706522  1.0
  O2-  O1017  1  0.68274457  0.38451087  0.80706522  1.0
  O2-  O1018  1  0.68274457  0.63451087  0.80706522  1.0
  O2-  O1019  1  0.68274457  0.88451087  0.80706522  1.0
  O2-  O1020  1  0.93274457  0.13451087  0.80706522  1.0
  O2-  O1021  1  0.93274457  0.38451087  0.80706522  1.0
  O2-  O1022  1  0.93274457  0.63451087  0.80706522  1.0
  O2-  O1023  1  0.93274457  0.88451087  0.80706522  1.0
  O2-  O1024  1  0.09986413  0.05027174  0.80163043  1.0
  O2-  O1025  1  0.09986413  0.30027174  0.80163043  1.0
  O2-  O1026  1  0.09986413  0.55027174  0.80163043  1.0
  O2-  O1027  1  0.09986413  0.80027174  0.80163043  1.0
  O2-  O1028  1  0.34986413  0.05027174  0.80163043  1.0
  O2-  O1029  1  0.34986413  0.30027174  0.80163043  1.0
  O2-  O1030  1  0.34986413  0.55027174  0.80163043  1.0
  O2-  O1031  1  0.34986413  0.80027174  0.80163043  1.0
  O2-  O1032  1  0.59986413  0.05027174  0.80163043  1.0
  O2-  O1033  1  0.59986413  0.30027174  0.80163043  1.0
  O2-  O1034  1  0.59986413  0.55027174  0.80163043  1.0
  O2-  O1035  1  0.59986413  0.80027174  0.80163043  1.0
  O2-  O1036  1  0.84986413  0.05027174  0.80163043  1.0
  O2-  O1037  1  0.84986413  0.30027174  0.80163043  1.0
  O2-  O1038  1  0.84986413  0.55027174  0.80163043  1.0
  O2-  O1039  1  0.84986413  0.80027174  0.80163043  1.0
  O2-  O1040  1  0.01698370  0.21603261  0.79619565  1.0
  O2-  O1041  1  0.01698370  0.46603261  0.79619565  1.0
  O2-  O1042  1  0.01698370  0.71603261  0.79619565  1.0
  O2-  O1043  1  0.01698370  0.96603261  0.79619565  1.0
  O2-  O1044  1  0.26698370  0.21603261  0.79619565  1.0
  O2-  O1045  1  0.26698370  0.46603261  0.79619565  1.0
  O2-  O1046  1  0.26698370  0.71603261  0.79619565  1.0
  O2-  O1047  1  0.26698370  0.96603261  0.79619565  1.0
  O2-  O1048  1  0.51698370  0.21603261  0.79619565  1.0
  O2-  O1049  1  0.51698370  0.46603261  0.79619565  1.0
  O2-  O1050  1  0.51698370  0.71603261  0.79619565  1.0
  O2-  O1051  1  0.51698370  0.96603261  0.79619565  1.0
  O2-  O1052  1  0.76698370  0.21603261  0.79619565  1.0
  O2-  O1053  1  0.76698370  0.46603261  0.79619565  1.0
  O2-  O1054  1  0.76698370  0.71603261  0.79619565  1.0
  O2-  O1055  1  0.76698370  0.96603261  0.79619565  1.0
  O2-  O1056  1  0.18410326  0.13179348  0.79076087  1.0
  O2-  O1057  1  0.18410326  0.38179348  0.79076087  1.0
  O2-  O1058  1  0.18410326  0.63179348  0.79076087  1.0
  O2-  O1059  1  0.18410326  0.88179348  0.79076087  1.0
  O2-  O1060  1  0.43410326  0.13179348  0.79076087  1.0
  O2-  O1061  1  0.43410326  0.38179348  0.79076087  1.0
  O2-  O1062  1  0.43410326  0.63179348  0.79076087  1.0
  O2-  O1063  1  0.43410326  0.88179348  0.79076087  1.0
  O2-  O1064  1  0.68410326  0.13179348  0.79076087  1.0
  O2-  O1065  1  0.68410326  0.38179348  0.79076087  1.0
  O2-  O1066  1  0.68410326  0.63179348  0.79076087  1.0
  O2-  O1067  1  0.68410326  0.88179348  0.79076087  1.0
  O2-  O1068  1  0.93410326  0.13179348  0.79076087  1.0
  O2-  O1069  1  0.93410326  0.38179348  0.79076087  1.0
  O2-  O1070  1  0.93410326  0.63179348  0.79076087  1.0
  O2-  O1071  1  0.93410326  0.88179348  0.79076087  1.0
  O2-  O1072  1  0.10122283  0.04755435  0.78532609  1.0
  O2-  O1073  1  0.10122283  0.29755435  0.78532609  1.0
  O2-  O1074  1  0.10122283  0.54755435  0.78532609  1.0
  O2-  O1075  1  0.10122283  0.79755435  0.78532609  1.0
  O2-  O1076  1  0.35122283  0.04755435  0.78532609  1.0
  O2-  O1077  1  0.35122283  0.29755435  0.78532609  1.0
  O2-  O1078  1  0.35122283  0.54755435  0.78532609  1.0
  O2-  O1079  1  0.35122283  0.79755435  0.78532609  1.0
  O2-  O1080  1  0.60122283  0.04755435  0.78532609  1.0
  O2-  O1081  1  0.60122283  0.29755435  0.78532609  1.0
  O2-  O1082  1  0.60122283  0.54755435  0.78532609  1.0
  O2-  O1083  1  0.60122283  0.79755435  0.78532609  1.0
  O2-  O1084  1  0.85122283  0.04755435  0.78532609  1.0
  O2-  O1085  1  0.85122283  0.29755435  0.78532609  1.0
  O2-  O1086  1  0.85122283  0.54755435  0.78532609  1.0
  O2-  O1087  1  0.85122283  0.79755435  0.78532609  1.0
  O2-  O1088  1  0.01834239  0.21331522  0.77989130  1.0
  O2-  O1089  1  0.01834239  0.46331522  0.77989130  1.0
  O2-  O1090  1  0.01834239  0.71331522  0.77989130  1.0
  O2-  O1091  1  0.01834239  0.96331522  0.77989130  1.0
  O2-  O1092  1  0.26834239  0.21331522  0.77989130  1.0
  O2-  O1093  1  0.26834239  0.46331522  0.77989130  1.0
  O2-  O1094  1  0.26834239  0.71331522  0.77989130  1.0
  O2-  O1095  1  0.26834239  0.96331522  0.77989130  1.0
  O2-  O1096  1  0.51834239  0.21331522  0.77989130  1.0
  O2-  O1097  1  0.51834239  0.46331522  0.77989130  1.0
  O2-  O1098  1  0.51834239  0.71331522  0.77989130  1.0
  O2-  O1099  1  0.51834239  0.96331522  0.77989130  1.0
  O2-  O1100  1  0.76834239  0.21331522  0.77989130  1.0
  O2-  O1101  1  0.76834239  0.46331522  0.77989130  1.0
  O2-  O1102  1  0.76834239  0.71331522  0.77989130  1.0
  O2-  O1103  1  0.76834239  0.96331522  0.77989130  1.0
  O2-  O1104  1  0.18546196  0.12907609  0.77445652  1.0
  O2-  O1105  1  0.18546196  0.37907609  0.77445652  1.0
  O2-  O1106  1  0.18546196  0.62907609  0.77445652  1.0
  O2-  O1107  1  0.18546196  0.87907609  0.77445652  1.0
  O2-  O1108  1  0.43546196  0.12907609  0.77445652  1.0
  O2-  O1109  1  0.43546196  0.37907609  0.77445652  1.0
  O2-  O1110  1  0.43546196  0.62907609  0.77445652  1.0
  O2-  O1111  1  0.43546196  0.87907609  0.77445652  1.0
  O2-  O1112  1  0.68546196  0.12907609  0.77445652  1.0
  O2-  O1113  1  0.68546196  0.37907609  0.77445652  1.0
  O2-  O1114  1  0.68546196  0.62907609  0.77445652  1.0
  O2-  O1115  1  0.68546196  0.87907609  0.77445652  1.0
  O2-  O1116  1  0.93546196  0.12907609  0.77445652  1.0
  O2-  O1117  1  0.93546196  0.37907609  0.77445652  1.0
  O2-  O1118  1  0.93546196  0.62907609  0.77445652  1.0
  O2-  O1119  1  0.93546196  0.87907609  0.77445652  1.0
  O2-  O1120  1  0.10258152  0.04483696  0.76902174  1.0
  O2-  O1121  1  0.10258152  0.29483696  0.76902174  1.0
  O2-  O1122  1  0.10258152  0.54483696  0.76902174  1.0
  O2-  O1123  1  0.10258152  0.79483696  0.76902174  1.0
  O2-  O1124  1  0.35258152  0.04483696  0.76902174  1.0
  O2-  O1125  1  0.35258152  0.29483696  0.76902174  1.0
  O2-  O1126  1  0.35258152  0.54483696  0.76902174  1.0
  O2-  O1127  1  0.35258152  0.79483696  0.76902174  1.0
  O2-  O1128  1  0.60258152  0.04483696  0.76902174  1.0
  O2-  O1129  1  0.60258152  0.29483696  0.76902174  1.0
  O2-  O1130  1  0.60258152  0.54483696  0.76902174  1.0
  O2-  O1131  1  0.60258152  0.79483696  0.76902174  1.0
  O2-  O1132  1  0.85258152  0.04483696  0.76902174  1.0
  O2-  O1133  1  0.85258152  0.29483696  0.76902174  1.0
  O2-  O1134  1  0.85258152  0.54483696  0.76902174  1.0
  O2-  O1135  1  0.85258152  0.79483696  0.76902174  1.0
  O2-  O1136  1  0.01970109  0.21059783  0.76358696  1.0
  O2-  O1137  1  0.01970109  0.46059783  0.76358696  1.0
  O2-  O1138  1  0.01970109  0.71059783  0.76358696  1.0
  O2-  O1139  1  0.01970109  0.96059783  0.76358696  1.0
  O2-  O1140  1  0.26970109  0.21059783  0.76358696  1.0
  O2-  O1141  1  0.26970109  0.46059783  0.76358696  1.0
  O2-  O1142  1  0.26970109  0.71059783  0.76358696  1.0
  O2-  O1143  1  0.26970109  0.96059783  0.76358696  1.0
  O2-  O1144  1  0.51970109  0.21059783  0.76358696  1.0
  O2-  O1145  1  0.51970109  0.46059783  0.76358696  1.0
  O2-  O1146  1  0.51970109  0.71059783  0.76358696  1.0
  O2-  O1147  1  0.51970109  0.96059783  0.76358696  1.0
  O2-  O1148  1  0.76970109  0.21059783  0.76358696  1.0
  O2-  O1149  1  0.76970109  0.46059783  0.76358696  1.0
  O2-  O1150  1  0.76970109  0.71059783  0.76358696  1.0
  O2-  O1151  1  0.76970109  0.96059783  0.76358696  1.0
  O2-  O1152  1  0.18682065  0.12635870  0.75815217  1.0
  O2-  O1153  1  0.18682065  0.37635870  0.75815217  1.0
  O2-  O1154  1  0.18682065  0.62635870  0.75815217  1.0
  O2-  O1155  1  0.18682065  0.87635870  0.75815217  1.0
  O2-  O1156  1  0.43682065  0.12635870  0.75815217  1.0
  O2-  O1157  1  0.43682065  0.37635870  0.75815217  1.0
  O2-  O1158  1  0.43682065  0.62635870  0.75815217  1.0
  O2-  O1159  1  0.43682065  0.87635870  0.75815217  1.0
  O2-  O1160  1  0.68682065  0.12635870  0.75815217  1.0
  O2-  O1161  1  0.68682065  0.37635870  0.75815217  1.0
  O2-  O1162  1  0.68682065  0.62635870  0.75815217  1.0
  O2-  O1163  1  0.68682065  0.87635870  0.75815217  1.0
  O2-  O1164  1  0.93682065  0.12635870  0.75815217  1.0
  O2-  O1165  1  0.93682065  0.37635870  0.75815217  1.0
  O2-  O1166  1  0.93682065  0.62635870  0.75815217  1.0
  O2-  O1167  1  0.93682065  0.87635870  0.75815217  1.0
  O2-  O1168  1  0.10394022  0.04211957  0.75271739  1.0
  O2-  O1169  1  0.10394022  0.29211957  0.75271739  1.0
  O2-  O1170  1  0.10394022  0.54211957  0.75271739  1.0
  O2-  O1171  1  0.10394022  0.79211957  0.75271739  1.0
  O2-  O1172  1  0.35394022  0.04211957  0.75271739  1.0
  O2-  O1173  1  0.35394022  0.29211957  0.75271739  1.0
  O2-  O1174  1  0.35394022  0.54211957  0.75271739  1.0
  O2-  O1175  1  0.35394022  0.79211957  0.75271739  1.0
  O2-  O1176  1  0.60394022  0.04211957  0.75271739  1.0
  O2-  O1177  1  0.60394022  0.29211957  0.75271739  1.0
  O2-  O1178  1  0.60394022  0.54211957  0.75271739  1.0
  O2-  O1179  1  0.60394022  0.79211957  0.75271739  1.0
  O2-  O1180  1  0.85394022  0.04211957  0.75271739  1.0
  O2-  O1181  1  0.85394022  0.29211957  0.75271739  1.0
  O2-  O1182  1  0.85394022  0.54211957  0.75271739  1.0
  O2-  O1183  1  0.85394022  0.79211957  0.75271739  1.0
  O2-  O1184  1  0.02105978  0.20788043  0.74728261  1.0
  O2-  O1185  1  0.02105978  0.45788043  0.74728261  1.0
  O2-  O1186  1  0.02105978  0.70788043  0.74728261  1.0
  O2-  O1187  1  0.02105978  0.95788043  0.74728261  1.0
  O2-  O1188  1  0.27105978  0.20788043  0.74728261  1.0
  O2-  O1189  1  0.27105978  0.45788043  0.74728261  1.0
  O2-  O1190  1  0.27105978  0.70788043  0.74728261  1.0
  O2-  O1191  1  0.27105978  0.95788043  0.74728261  1.0
  O2-  O1192  1  0.52105978  0.20788043  0.74728261  1.0
  O2-  O1193  1  0.52105978  0.45788043  0.74728261  1.0
  O2-  O1194  1  0.52105978  0.70788043  0.74728261  1.0
  O2-  O1195  1  0.52105978  0.95788043  0.74728261  1.0
  O2-  O1196  1  0.77105978  0.20788043  0.74728261  1.0
  O2-  O1197  1  0.77105978  0.45788043  0.74728261  1.0
  O2-  O1198  1  0.77105978  0.70788043  0.74728261  1.0
  O2-  O1199  1  0.77105978  0.95788043  0.74728261  1.0
  O2-  O1200  1  0.18817935  0.12364130  0.74184783  1.0
  O2-  O1201  1  0.18817935  0.37364130  0.74184783  1.0
  O2-  O1202  1  0.18817935  0.62364130  0.74184783  1.0
  O2-  O1203  1  0.18817935  0.87364130  0.74184783  1.0
  O2-  O1204  1  0.43817935  0.12364130  0.74184783  1.0
  O2-  O1205  1  0.43817935  0.37364130  0.74184783  1.0
  O2-  O1206  1  0.43817935  0.62364130  0.74184783  1.0
  O2-  O1207  1  0.43817935  0.87364130  0.74184783  1.0
  O2-  O1208  1  0.68817935  0.12364130  0.74184783  1.0
  O2-  O1209  1  0.68817935  0.37364130  0.74184783  1.0
  O2-  O1210  1  0.68817935  0.62364130  0.74184783  1.0
  O2-  O1211  1  0.68817935  0.87364130  0.74184783  1.0
  O2-  O1212  1  0.93817935  0.12364130  0.74184783  1.0
  O2-  O1213  1  0.93817935  0.37364130  0.74184783  1.0
  O2-  O1214  1  0.93817935  0.62364130  0.74184783  1.0
  O2-  O1215  1  0.93817935  0.87364130  0.74184783  1.0
  O2-  O1216  1  0.10529891  0.03940217  0.73641304  1.0
  O2-  O1217  1  0.10529891  0.28940217  0.73641304  1.0
  O2-  O1218  1  0.10529891  0.53940217  0.73641304  1.0
  O2-  O1219  1  0.10529891  0.78940217  0.73641304  1.0
  O2-  O1220  1  0.35529891  0.03940217  0.73641304  1.0
  O2-  O1221  1  0.35529891  0.28940217  0.73641304  1.0
  O2-  O1222  1  0.35529891  0.53940217  0.73641304  1.0
  O2-  O1223  1  0.35529891  0.78940217  0.73641304  1.0
  O2-  O1224  1  0.60529891  0.03940217  0.73641304  1.0
  O2-  O1225  1  0.60529891  0.28940217  0.73641304  1.0
  O2-  O1226  1  0.60529891  0.53940217  0.73641304  1.0
  O2-  O1227  1  0.60529891  0.78940217  0.73641304  1.0
  O2-  O1228  1  0.85529891  0.03940217  0.73641304  1.0
  O2-  O1229  1  0.85529891  0.28940217  0.73641304  1.0
  O2-  O1230  1  0.85529891  0.53940217  0.73641304  1.0
  O2-  O1231  1  0.85529891  0.78940217  0.73641304  1.0
  O2-  O1232  1  0.02241848  0.20516304  0.73097826  1.0
  O2-  O1233  1  0.02241848  0.45516304  0.73097826  1.0
  O2-  O1234  1  0.02241848  0.70516304  0.73097826  1.0
  O2-  O1235  1  0.02241848  0.95516304  0.73097826  1.0
  O2-  O1236  1  0.27241848  0.20516304  0.73097826  1.0
  O2-  O1237  1  0.27241848  0.45516304  0.73097826  1.0
  O2-  O1238  1  0.27241848  0.70516304  0.73097826  1.0
  O2-  O1239  1  0.27241848  0.95516304  0.73097826  1.0
  O2-  O1240  1  0.52241848  0.20516304  0.73097826  1.0
  O2-  O1241  1  0.52241848  0.45516304  0.73097826  1.0
  O2-  O1242  1  0.52241848  0.70516304  0.73097826  1.0
  O2-  O1243  1  0.52241848  0.95516304  0.73097826  1.0
  O2-  O1244  1  0.77241848  0.20516304  0.73097826  1.0
  O2-  O1245  1  0.77241848  0.45516304  0.73097826  1.0
  O2-  O1246  1  0.77241848  0.70516304  0.73097826  1.0
  O2-  O1247  1  0.77241848  0.95516304  0.73097826  1.0
  O2-  O1248  1  0.18953804  0.12092391  0.72554348  1.0
  O2-  O1249  1  0.18953804  0.37092391  0.72554348  1.0
  O2-  O1250  1  0.18953804  0.62092391  0.72554348  1.0
  O2-  O1251  1  0.18953804  0.87092391  0.72554348  1.0
  O2-  O1252  1  0.43953804  0.12092391  0.72554348  1.0
  O2-  O1253  1  0.43953804  0.37092391  0.72554348  1.0
  O2-  O1254  1  0.43953804  0.62092391  0.72554348  1.0
  O2-  O1255  1  0.43953804  0.87092391  0.72554348  1.0
  O2-  O1256  1  0.68953804  0.12092391  0.72554348  1.0
  O2-  O1257  1  0.68953804  0.37092391  0.72554348  1.0
  O2-  O1258  1  0.68953804  0.62092391  0.72554348  1.0
  O2-  O1259  1  0.68953804  0.87092391  0.72554348  1.0
  O2-  O1260  1  0.93953804  0.12092391  0.72554348  1.0
  O2-  O1261  1  0.93953804  0.37092391  0.72554348  1.0
  O2-  O1262  1  0.93953804  0.62092391  0.72554348  1.0
  O2-  O1263  1  0.93953804  0.87092391  0.72554348  1.0
  O2-  O1264  1  0.10665761  0.03668478  0.72010870  1.0
  O2-  O1265  1  0.10665761  0.28668478  0.72010870  1.0
  O2-  O1266  1  0.10665761  0.53668478  0.72010870  1.0
  O2-  O1267  1  0.10665761  0.78668478  0.72010870  1.0
  O2-  O1268  1  0.35665761  0.03668478  0.72010870  1.0
  O2-  O1269  1  0.35665761  0.28668478  0.72010870  1.0
  O2-  O1270  1  0.35665761  0.53668478  0.72010870  1.0
  O2-  O1271  1  0.35665761  0.78668478  0.72010870  1.0
  O2-  O1272  1  0.60665761  0.03668478  0.72010870  1.0
  O2-  O1273  1  0.60665761  0.28668478  0.72010870  1.0
  O2-  O1274  1  0.60665761  0.53668478  0.72010870  1.0
  O2-  O1275  1  0.60665761  0.78668478  0.72010870  1.0
  O2-  O1276  1  0.85665761  0.03668478  0.72010870  1.0
  O2-  O1277  1  0.85665761  0.28668478  0.72010870  1.0
  O2-  O1278  1  0.85665761  0.53668478  0.72010870  1.0
  O2-  O1279  1  0.85665761  0.78668478  0.72010870  1.0
  O2-  O1280  1  0.02377717  0.20244565  0.71467391  1.0
  O2-  O1281  1  0.02377717  0.45244565  0.71467391  1.0
  O2-  O1282  1  0.02377717  0.70244565  0.71467391  1.0
  O2-  O1283  1  0.02377717  0.95244565  0.71467391  1.0
  O2-  O1284  1  0.27377717  0.20244565  0.71467391  1.0
  O2-  O1285  1  0.27377717  0.45244565  0.71467391  1.0
  O2-  O1286  1  0.27377717  0.70244565  0.71467391  1.0
  O2-  O1287  1  0.27377717  0.95244565  0.71467391  1.0
  O2-  O1288  1  0.52377717  0.20244565  0.71467391  1.0
  O2-  O1289  1  0.52377717  0.45244565  0.71467391  1.0
  O2-  O1290  1  0.52377717  0.70244565  0.71467391  1.0
  O2-  O1291  1  0.52377717  0.95244565  0.71467391  1.0
  O2-  O1292  1  0.77377717  0.20244565  0.71467391  1.0
  O2-  O1293  1  0.77377717  0.45244565  0.71467391  1.0
  O2-  O1294  1  0.77377717  0.70244565  0.71467391  1.0
  O2-  O1295  1  0.77377717  0.95244565  0.71467391  1.0
  O2-  O1296  1  0.19089674  0.11820652  0.70923913  1.0
  O2-  O1297  1  0.19089674  0.36820652  0.70923913  1.0
  O2-  O1298  1  0.19089674  0.61820652  0.70923913  1.0
  O2-  O1299  1  0.19089674  0.86820652  0.70923913  1.0
  O2-  O1300  1  0.44089674  0.11820652  0.70923913  1.0
  O2-  O1301  1  0.44089674  0.36820652  0.70923913  1.0
  O2-  O1302  1  0.44089674  0.61820652  0.70923913  1.0
  O2-  O1303  1  0.44089674  0.86820652  0.70923913  1.0
  O2-  O1304  1  0.69089674  0.11820652  0.70923913  1.0
  O2-  O1305  1  0.69089674  0.36820652  0.70923913  1.0
  O2-  O1306  1  0.69089674  0.61820652  0.70923913  1.0
  O2-  O1307  1  0.69089674  0.86820652  0.70923913  1.0
  O2-  O1308  1  0.94089674  0.11820652  0.70923913  1.0
  O2-  O1309  1  0.94089674  0.36820652  0.70923913  1.0
  O2-  O1310  1  0.94089674  0.61820652  0.70923913  1.0
  O2-  O1311  1  0.94089674  0.86820652  0.70923913  1.0
  O2-  O1312  1  0.10801630  0.03396739  0.70380435  1.0
  O2-  O1313  1  0.10801630  0.28396739  0.70380435  1.0
  O2-  O1314  1  0.10801630  0.53396739  0.70380435  1.0
  O2-  O1315  1  0.10801630  0.78396739  0.70380435  1.0
  O2-  O1316  1  0.35801630  0.03396739  0.70380435  1.0
  O2-  O1317  1  0.35801630  0.28396739  0.70380435  1.0
  O2-  O1318  1  0.35801630  0.53396739  0.70380435  1.0
  O2-  O1319  1  0.35801630  0.78396739  0.70380435  1.0
  O2-  O1320  1  0.60801630  0.03396739  0.70380435  1.0
  O2-  O1321  1  0.60801630  0.28396739  0.70380435  1.0
  O2-  O1322  1  0.60801630  0.53396739  0.70380435  1.0
  O2-  O1323  1  0.60801630  0.78396739  0.70380435  1.0
  O2-  O1324  1  0.85801630  0.03396739  0.70380435  1.0
  O2-  O1325  1  0.85801630  0.28396739  0.70380435  1.0
  O2-  O1326  1  0.85801630  0.53396739  0.70380435  1.0
  O2-  O1327  1  0.85801630  0.78396739  0.70380435  1.0
  O2-  O1328  1  0.02513587  0.19972826  0.69836957  1.0
  O2-  O1329  1  0.02513587  0.44972826  0.69836957  1.0
  O2-  O1330  1  0.02513587  0.69972826  0.69836957  1.0
  O2-  O1331  1  0.02513587  0.94972826  0.69836957  1.0
  O2-  O1332  1  0.27513587  0.19972826  0.69836957  1.0
  O2-  O1333  1  0.27513587  0.44972826  0.69836957  1.0
  O2-  O1334  1  0.27513587  0.69972826  0.69836957  1.0
  O2-  O1335  1  0.27513587  0.94972826  0.69836957  1.0
  O2-  O1336  1  0.52513587  0.19972826  0.69836957  1.0
  O2-  O1337  1  0.52513587  0.44972826  0.69836957  1.0
  O2-  O1338  1  0.52513587  0.69972826  0.69836957  1.0
  O2-  O1339  1  0.52513587  0.94972826  0.69836957  1.0
  O2-  O1340  1  0.77513587  0.19972826  0.69836957  1.0
  O2-  O1341  1  0.77513587  0.44972826  0.69836957  1.0
  O2-  O1342  1  0.77513587  0.69972826  0.69836957  1.0
  O2-  O1343  1  0.77513587  0.94972826  0.69836957  1.0
